BEGIN Configuration File: cmesh16_ver1x
// $Id$

// Copyright (c) 2007-2015, Trustees of The Leland Stanford Junior University
// All rights reserved.
//
// Redistribution and use in source and binary forms, with or without
// modification, are permitted provided that the following conditions are met:
//
// Redistributions of source code must retain the above copyright notice, this
// list of conditions and the following disclaimer.
// Redistributions in binary form must reproduce the above copyright notice,
// this list of conditions and the following disclaimer in the documentation
// and/or other materials provided with the distribution.
//
// THIS SOFTWARE IS PROVIDED BY THE COPYRIGHT HOLDERS AND CONTRIBUTORS "AS IS"
// AND ANY EXPRESS OR IMPLIED WARRANTIES, INCLUDING, BUT NOT LIMITED TO, THE
// IMPLIED WARRANTIES OF MERCHANTABILITY AND FITNESS FOR A PARTICULAR PURPOSE
// ARE DISCLAIMED. IN NO EVENT SHALL THE COPYRIGHT OWNER OR CONTRIBUTORS BE
// LIABLE FOR ANY DIRECT, INDIRECT, INCIDENTAL, SPECIAL, EXEMPLARY, OR
// CONSEQUENTIAL DAMAGES (INCLUDING, BUT NOT LIMITED TO, PROCUREMENT OF
// SUBSTITUTE GOODS OR SERVICES; LOSS OF USE, DATA, OR PROFITS; OR BUSINESS
// INTERRUPTION) HOWEVER CAUSED AND ON ANY THEORY OF LIABILITY, WHETHER IN
// CONTRACT, STRICT LIABILITY, OR TORT (INCLUDING NEGLIGENCE OR OTHERWISE)
// ARISING IN ANY WAY OUT OF THE USE OF THIS SOFTWARE, EVEN IF ADVISED OF THE
// POSSIBILITY OF SUCH DAMAGE.

//xr, yr, x, y, are use to indicate how the concnetration is formed. 

topology = cmesh;
k = 4;
n = 2;
c = 4;
xr = 2;
yr = 2;

x = 4; 
y = 4;

// Routing
routing_function = dor;

// Flow control -- need to be determined by area constraint
num_vcs     = 16;
vc_buf_size = 8;
wait_for_tail_credit = 0;

// Router architecture -- okay with default
vc_allocator = islip;
sw_allocator = islip;
alloc_iters  = 1;

credit_delay   = 0;
routing_delay  = 0;
vc_alloc_delay = 1;
sw_alloc_delay = 1;

input_speedup     = 4;
output_speedup    = 4;
internal_speedup  = 1.0;


// Traffic
traffic = uniform;
packet_size = 4;
viewer_trace = 1;

// Simulation
sim_type = throughput;

injection_rate = 0.01;


END Configuration File: cmesh16_ver1x
Network::_Alloc() - size: 16, nodes: 64, channels: 64
Setup Finished Router
Link  0 17 0 2
Link  16 24 0 4
Link  32 52 0 2
Link  48 50 0 4
Link  1 18 1 2
Link  17 0 1 2
Link  33 53 1 2
Link  49 51 1 4
Link  2 19 2 2
Link  18 1 2 2
Link  34 54 2 2
Link  50 48 2 4
Link  3 11 3 4
Link  19 2 3 2
Link  35 55 3 2
Link  51 49 3 4
Link  4 21 4 2
Link  20 28 4 4
Link  36 56 4 2
Link  52 32 4 2
Link  5 22 5 2
Link  21 4 5 2
Link  37 57 5 2
Link  53 33 5 2
Link  6 23 6 2
Link  22 5 6 2
Link  38 58 6 2
Link  54 34 6 2
Link  7 15 7 4
Link  23 6 7 2
Link  39 59 7 2
Link  55 35 7 2
Link  8 25 8 2
Link  24 16 8 4
Link  40 60 8 2
Link  56 36 8 2
Link  9 26 9 2
Link  25 8 9 2
Link  41 61 9 2
Link  57 37 9 2
Link  10 27 10 2
Link  26 9 10 2
Link  42 62 10 2
Link  58 38 10 2
Link  11 3 11 4
Link  27 10 11 2
Link  43 63 11 2
Link  59 39 11 2
Link  12 29 12 2
Link  28 20 12 4
Link  44 46 12 4
Link  60 40 12 2
Link  13 30 13 2
Link  29 12 13 2
Link  45 47 13 4
Link  61 41 13 2
Link  14 31 14 2
Link  30 13 14 2
Link  46 44 14 4
Link  62 42 14 2
Link  15 7 15 4
Link  31 14 15 2
Link  47 45 15 4
Link  63 43 15 2
Setup Finished Link
TIME 1
TIME 2
TIME 3
New Flit 25
New Flit 25
New Flit 25
New Flit 25
TIME 4
New Flit 3
New Flit 3
New Flit 3
New Flit 3
TIME 5
New Flit 6
New Flit 6
New Flit 6
New Flit 6
TIME 6
New Flit 32
New Flit 32
New Flit 32
New Flit 32
TIME 7
New Flit 55
New Flit 55
New Flit 55
New Flit 55
Outport 4
Stop Mark
TIME 8
New Flit 20
New Flit 20
New Flit 20
New Flit 20
Outport 6
Stop Mark
Outport 4
Stop Mark
TIME 9
New Flit 13
New Flit 13
New Flit 13
New Flit 13
New Flit 62
New Flit 62
New Flit 62
New Flit 62
Outport 6
Stop Mark
Outport 7
Stop Mark
Outport 4
Stop Mark
TIME 10
Outport 6
Stop Mark
Outport 7
Stop Mark
Outport 4
Stop Mark
Outport 6
Stop Mark
TIME 11
Outport 6
Stop Mark
Outport 7
Stop Mark
Outport 6
Stop Mark
Outport 6
Stop Mark
TIME 12
New Flit 4
New Flit 4
New Flit 4
New Flit 4
New Flit 63
New Flit 63
New Flit 63
New Flit 63
Outport 7
Stop Mark
Outport 4
Stop Mark
Outport 4
Stop Mark
Outport 6
Stop Mark
Outport 6
Stop Mark
TIME 13
Outport 5
Stop Mark
Outport 4
Stop Mark
Outport 6
Stop Mark
Outport 4
Stop Mark
Outport 6
Stop Mark
Outport 6
Stop Mark
TIME 14
Outport 5
Stop Mark
Outport 4
Stop Mark
Outport 6
Stop Mark
Outport 4
Stop Mark
Outport 6
Stop Mark
TIME 15
New Flit 22
New Flit 22
New Flit 22
New Flit 22
Outport 5
Stop Mark
Outport 4
Stop Mark
Outport 6
Stop Mark
Outport 4
Stop Mark
Outport 3
Stop Mark
Outport 6
Stop Mark
TIME 16
New Flit 48
New Flit 48
New Flit 48
New Flit 48
Outport 6
Stop Mark
Outport 5
Stop Mark
Outport 6
Stop Mark
Outport 3
Stop Mark
Outport 1
Stop Mark
Outport 6
Stop Mark
TIME 17
Outport 6
Stop Mark
Outport 5
Stop Mark
Outport 6
Stop Mark
Outport 6
Stop Mark
Outport 3
Stop Mark
Outport 1
Stop Mark
Outport 6
Stop Mark
TIME 18
Outport 6
Stop Mark
Outport 5
Stop Mark
Outport 6
Stop Mark
Outport 6
Stop Mark
Outport 6
Stop Mark
Outport 3
Stop Mark
Outport 5
Stop Mark
Outport 1
Stop Mark
Outport 6
Stop Mark
TIME 19
New Flit 47
New Flit 47
New Flit 47
New Flit 47
Outport 6
Stop Mark
Outport 5
Stop Mark
Outport 6
Stop Mark
Outport 6
Stop Mark
Outport 7
Stop Mark
Outport 6
Stop Mark
Outport 5
Stop Mark
Outport 1
Stop Mark
TIME 20
New Flit 34
New Flit 34
New Flit 34
New Flit 34
Outport 6
Stop Mark
Outport 5
Stop Mark
Outport 6
Stop Mark
Outport 6
Stop Mark
Outport 7
Stop Mark
Outport 6
Stop Mark
Outport 6
Stop Mark
Outport 5
Stop Mark
Outport 7
Stop Mark
TIME 21
New Flit 44
New Flit 44
New Flit 44
New Flit 44
Outport 1
Stop Mark
Outport 6
Stop Mark
Outport 6
Stop Mark
Outport 7
Stop Mark
Outport 6
Stop Mark
Outport 6
Stop Mark
Outport 7
Stop Mark
TIME 22
Outport 1
Stop Mark
Outport 6
Stop Mark
Outport 6
Stop Mark
Outport 7
Stop Mark
Outport 0
Stop Mark
Outport 2
Stop Mark
Outport 6
Stop Mark
Outport 5
Stop Mark
TIME 23
New Flit 40
New Flit 40
New Flit 40
New Flit 40
Outport 1
Stop Mark
Outport 6
Stop Mark
Outport 2
Stop Mark
Outport 6
Stop Mark
Outport 0
Stop Mark
Outport 2
Stop Mark
Outport 7
Stop Mark
Outport 5
Stop Mark
Outport 6
Stop Mark
Outport 2
Stop Mark
Outport 7
Stop Mark
TIME 24
Outport 1
Stop Mark
Outport 2
Stop Mark
Outport 2
Stop Mark
Outport 6
Stop Mark
Outport 0
Stop Mark
Outport 2
Stop Mark
Outport 7
Stop Mark
Outport 5
Stop Mark
Outport 2
Stop Mark
Outport 7
Stop Mark
TIME 25
New Flit 52
New Flit 52
New Flit 52
New Flit 52
Outport 2
Stop Mark
Outport 6
Stop Mark
Outport 6
Stop Mark
Outport 7
Stop Mark
Outport 0
Stop Mark
Outport 7
Stop Mark
Outport 2
Stop Mark
Outport 7
Stop Mark
Outport 5
Stop Mark
Outport 2
Stop Mark
TIME 26
Outport 2
Stop Mark
Outport 2
Stop Mark
Outport 6
Stop Mark
Outport 7
Stop Mark
Outport 7
Stop Mark
Outport 7
Stop Mark
Outport 5
Stop Mark
Outport 2
Stop Mark
TIME 27
Outport 2
Stop Mark
Outport 2
Stop Mark
Outport 4
Stop Mark
Outport 6
Stop Mark
Outport 7
Stop Mark
Outport 7
Stop Mark
Outport 7
Stop Mark
TIME 28
Outport 1
Stop Mark
Outport 4
Stop Mark
Outport 6
Stop Mark
Outport 7
Stop Mark
Outport 7
Stop Mark
Outport 7
Stop Mark
TIME 29
New Flit 38
New Flit 38
New Flit 38
New Flit 38
Outport 1
Stop Mark
Outport 4
Stop Mark
Outport 6
Stop Mark
Outport 2
Stop Mark
Outport 4
Stop Mark
Outport 7
Stop Mark
TIME 30
Outport 7
Stop Mark
Outport 0
Stop Mark
Outport 7
Stop Mark
Outport 1
Stop Mark
Outport 4
Stop Mark
Outport 6
Stop Mark
Outport 2
Stop Mark
Outport 4
Stop Mark
Outport 7
Stop Mark
TIME 31
New Flit 7
New Flit 7
New Flit 7
New Flit 7
New Flit 33
New Flit 33
New Flit 33
New Flit 33
Outport 7
Stop Mark
Outport 0
Stop Mark
Outport 7
Stop Mark
Outport 1
Stop Mark
Outport 6
Stop Mark
Outport 1
Stop Mark
Outport 2
Stop Mark
Outport 4
Stop Mark
TIME 32
Outport 7
Stop Mark
Outport 0
Stop Mark
Outport 7
Stop Mark
Outport 4
Stop Mark
Outport 3
Stop Mark
Outport 1
Stop Mark
Outport 4
Stop Mark
TIME 33
New Flit 24
New Flit 24
New Flit 24
New Flit 24
New Flit 53
New Flit 53
New Flit 53
New Flit 53
Outport 7
Stop Mark
Outport 0
Stop Mark
Outport 7
Stop Mark
Outport 4
Stop Mark
Outport 3
Stop Mark
Outport 2
Stop Mark
Outport 2
Stop Mark
TIME 34
Outport 4
Stop Mark
Outport 3
Stop Mark
Outport 2
Stop Mark
Outport 1
Stop Mark
Outport 7
Stop Mark
TIME 35
Outport 2
Stop Mark
Outport 0
Stop Mark
Outport 7
Stop Mark
Outport 7
Stop Mark
Outport 4
Stop Mark
Outport 3
Stop Mark
Outport 2
Stop Mark
Outport 1
Stop Mark
Outport 7
Stop Mark
TIME 36
New Flit 33
New Flit 33
New Flit 33
New Flit 33
Outport 2
Stop Mark
Outport 0
Stop Mark
Outport 7
Stop Mark
Outport 7
Stop Mark
Outport 2
Stop Mark
Outport 7
Stop Mark
TIME 37
New Flit 36
New Flit 36
New Flit 36
New Flit 36
Outport 2
Stop Mark
Outport 0
Stop Mark
Outport 7
Stop Mark
Outport 4
Stop Mark
Outport 7
Stop Mark
Outport 4
Stop Mark
Outport 6
Stop Mark
Outport 7
Stop Mark
TIME 38
Outport 2
Stop Mark
Outport 0
Stop Mark
Outport 7
Stop Mark
Outport 4
Stop Mark
Outport 7
Stop Mark
Outport 4
Stop Mark
Outport 6
Stop Mark
TIME 39
New Flit 26
New Flit 26
New Flit 26
New Flit 26
New Flit 49
New Flit 49
New Flit 49
New Flit 49
Outport 4
Stop Mark
Outport 4
Stop Mark
Outport 2
Stop Mark
Outport 6
Stop Mark
TIME 40
Outport 1
Stop Mark
Outport 4
Stop Mark
Outport 4
Stop Mark
Outport 4
Stop Mark
Outport 2
Stop Mark
Outport 6
Stop Mark
TIME 41
Outport 1
Stop Mark
Outport 4
Stop Mark
Outport 4
Stop Mark
Outport 2
Stop Mark
TIME 42
Outport 6
Stop Mark
Outport 1
Stop Mark
Outport 6
Stop Mark
Outport 4
Stop Mark
Outport 4
Stop Mark
Outport 2
Stop Mark
Outport 4
Stop Mark
TIME 43
Outport 6
Stop Mark
Outport 1
Stop Mark
Outport 4
Stop Mark
Outport 6
Stop Mark
Outport 4
Stop Mark
Outport 4
Stop Mark
Outport 4
Stop Mark
Outport 5
Stop Mark
TIME 44
Outport 6
Stop Mark
Outport 4
Stop Mark
Outport 6
Stop Mark
Outport 4
Stop Mark
Outport 4
Stop Mark
Outport 2
Stop Mark
Outport 5
Stop Mark
TIME 45
New Flit 47
New Flit 47
New Flit 47
New Flit 47
Outport 6
Stop Mark
Outport 4
Stop Mark
Outport 6
Stop Mark
Outport 7
Stop Mark
Outport 4
Stop Mark
Outport 2
Stop Mark
Outport 5
Stop Mark
TIME 46
Outport 4
Stop Mark
Outport 7
Stop Mark
Outport 6
Stop Mark
Outport 2
Stop Mark
Outport 5
Stop Mark
TIME 47
Outport 6
Stop Mark
Outport 6
Stop Mark
Outport 7
Stop Mark
Outport 6
Stop Mark
Outport 2
Stop Mark
TIME 48
Outport 6
Stop Mark
Outport 4
Stop Mark
Outport 6
Stop Mark
Outport 7
Stop Mark
Outport 6
Stop Mark
TIME 49
Outport 3
Stop Mark
Outport 6
Stop Mark
Outport 4
Stop Mark
Outport 6
Stop Mark
Outport 5
Stop Mark
Outport 6
Stop Mark
TIME 50
Outport 3
Stop Mark
Outport 3
Stop Mark
Outport 6
Stop Mark
Outport 7
Stop Mark
Outport 4
Stop Mark
Outport 6
Stop Mark
Outport 5
Stop Mark
TIME 51
New Flit 9
New Flit 9
New Flit 9
New Flit 9
Outport 3
Stop Mark
Outport 3
Stop Mark
Outport 7
Stop Mark
Outport 4
Stop Mark
Outport 5
Stop Mark
Outport 3
Stop Mark
TIME 52
Outport 3
Stop Mark
Outport 3
Stop Mark
Outport 7
Stop Mark
Outport 6
Stop Mark
Outport 5
Stop Mark
Outport 3
Stop Mark
Outport 3
Stop Mark
TIME 53
New Flit 26
New Flit 26
New Flit 26
New Flit 26
Outport 3
Stop Mark
Outport 7
Stop Mark
Outport 7
Stop Mark
Outport 6
Stop Mark
Outport 3
Stop Mark
Outport 3
Stop Mark
TIME 54
Outport 7
Stop Mark
Outport 6
Stop Mark
Outport 5
Stop Mark
Outport 3
Stop Mark
Outport 3
Stop Mark
TIME 55
Outport 2
Stop Mark
Outport 0
Stop Mark
Outport 7
Stop Mark
Outport 6
Stop Mark
Outport 5
Stop Mark
Outport 3
Stop Mark
TIME 56
Outport 2
Stop Mark
Outport 0
Stop Mark
Outport 7
Stop Mark
Outport 5
Stop Mark
TIME 57
Outport 2
Stop Mark
Outport 0
Stop Mark
Outport 4
Stop Mark
Outport 5
Stop Mark
Outport 2
Stop Mark
TIME 58
New Flit 46
New Flit 46
New Flit 46
New Flit 46
Outport 2
Stop Mark
Outport 0
Stop Mark
Outport 1
Stop Mark
Outport 4
Stop Mark
Outport 2
Stop Mark
TIME 59
New Flit 5
New Flit 5
New Flit 5
New Flit 5
New Flit 24
New Flit 24
New Flit 24
New Flit 24
Outport 1
Stop Mark
Outport 4
Stop Mark
Outport 7
Stop Mark
Outport 2
Stop Mark
TIME 60
Outport 1
Stop Mark
Outport 4
Stop Mark
Outport 7
Stop Mark
Outport 2
Stop Mark
TIME 61
Outport 1
Stop Mark
Outport 7
Stop Mark
TIME 62
New Flit 59
New Flit 59
New Flit 59
New Flit 59
Outport 4
Stop Mark
Outport 7
Stop Mark
Outport 5
Stop Mark
TIME 63
Outport 4
Stop Mark
Outport 6
Stop Mark
Outport 4
Stop Mark
Outport 5
Stop Mark
TIME 64
Outport 4
Stop Mark
Outport 6
Stop Mark
Outport 1
Stop Mark
Outport 4
Stop Mark
Outport 5
Stop Mark
TIME 65
Outport 4
Stop Mark
Outport 6
Stop Mark
Outport 1
Stop Mark
Outport 4
Stop Mark
Outport 5
Stop Mark
TIME 66
Outport 4
Stop Mark
Outport 6
Stop Mark
Outport 1
Stop Mark
Outport 7
Stop Mark
TIME 67
New Flit 20
New Flit 20
New Flit 20
New Flit 20
New Flit 55
New Flit 55
New Flit 55
New Flit 55
Outport 1
Stop Mark
Outport 4
Stop Mark
Outport 0
Stop Mark
Outport 7
Stop Mark
TIME 68
Outport 1
Stop Mark
Outport 4
Stop Mark
Outport 0
Stop Mark
Outport 0
Stop Mark
Outport 7
Stop Mark
TIME 69
Outport 1
Stop Mark
Outport 4
Stop Mark
Outport 0
Stop Mark
Outport 0
Stop Mark
Outport 7
Stop Mark
TIME 70
New Flit 0
New Flit 0
New Flit 0
New Flit 0
Outport 1
Stop Mark
Outport 4
Stop Mark
Outport 0
Stop Mark
Outport 0
Stop Mark
TIME 71
Outport 1
Stop Mark
Outport 7
Stop Mark
Outport 0
Stop Mark
Outport 7
Stop Mark
Outport 6
Stop Mark
TIME 72
New Flit 11
New Flit 11
New Flit 11
New Flit 11
New Flit 38
New Flit 38
New Flit 38
New Flit 38
Outport 7
Stop Mark
Outport 7
Stop Mark
Outport 6
Stop Mark
TIME 73
New Flit 19
New Flit 19
New Flit 19
New Flit 19
New Flit 47
New Flit 47
New Flit 47
New Flit 47
Outport 7
Stop Mark
Outport 7
Stop Mark
Outport 6
Stop Mark
TIME 74
Outport 7
Stop Mark
Outport 7
Stop Mark
Outport 7
Stop Mark
Outport 2
Stop Mark
Outport 6
Stop Mark
TIME 75
New Flit 39
New Flit 39
New Flit 39
New Flit 39
New Flit 53
New Flit 53
New Flit 53
New Flit 53
Outport 7
Stop Mark
Outport 2
Stop Mark
TIME 76
Outport 7
Stop Mark
Outport 4
Stop Mark
Outport 2
Stop Mark
Outport 7
Stop Mark
Outport 5
Stop Mark
Outport 2
Stop Mark
TIME 77
New Flit 30
New Flit 30
New Flit 30
New Flit 30
Outport 7
Stop Mark
Outport 4
Stop Mark
Outport 2
Stop Mark
Outport 4
Stop Mark
Outport 7
Stop Mark
Outport 0
Stop Mark
Outport 5
Stop Mark
Outport 2
Stop Mark
TIME 78
Outport 4
Stop Mark
Outport 2
Stop Mark
Outport 4
Stop Mark
Outport 7
Stop Mark
Outport 0
Stop Mark
Outport 5
Stop Mark
Outport 7
Stop Mark
TIME 79
Outport 4
Stop Mark
Outport 2
Stop Mark
Outport 4
Stop Mark
Outport 7
Stop Mark
Outport 0
Stop Mark
Outport 5
Stop Mark
Outport 7
Stop Mark
Outport 6
Stop Mark
TIME 80
New Flit 13
New Flit 13
New Flit 13
New Flit 13
Outport 4
Stop Mark
Outport 0
Stop Mark
Outport 5
Stop Mark
Outport 7
Stop Mark
Outport 6
Stop Mark
TIME 81
Outport 0
Stop Mark
Outport 3
Stop Mark
Outport 4
Stop Mark
Outport 5
Stop Mark
Outport 5
Stop Mark
Outport 5
Stop Mark
Outport 7
Stop Mark
Outport 6
Stop Mark
TIME 82
Outport 0
Stop Mark
Outport 3
Stop Mark
Outport 4
Stop Mark
Outport 6
Stop Mark
Outport 5
Stop Mark
Outport 5
Stop Mark
Outport 5
Stop Mark
Outport 6
Stop Mark
TIME 83
New Flit 47
New Flit 47
New Flit 47
New Flit 47
Outport 0
Stop Mark
Outport 3
Stop Mark
Outport 4
Stop Mark
Outport 6
Stop Mark
Outport 5
Stop Mark
Outport 7
Stop Mark
Outport 5
Stop Mark
Outport 5
Stop Mark
TIME 84
New Flit 15
New Flit 15
New Flit 15
New Flit 15
New Flit 17
New Flit 17
New Flit 17
New Flit 17
Outport 0
Stop Mark
Outport 3
Stop Mark
Outport 4
Stop Mark
Outport 5
Stop Mark
Outport 6
Stop Mark
Outport 5
Stop Mark
Outport 7
Stop Mark
Outport 5
Stop Mark
Outport 7
Stop Mark
TIME 85
New Flit 20
New Flit 20
New Flit 20
New Flit 20
Outport 5
Stop Mark
Outport 6
Stop Mark
Outport 7
Stop Mark
Outport 7
Stop Mark
TIME 86
New Flit 7
New Flit 7
New Flit 7
New Flit 7
Outport 5
Stop Mark
Outport 4
Stop Mark
Outport 5
Stop Mark
Outport 7
Stop Mark
Outport 7
Stop Mark
Outport 3
Stop Mark
TIME 87
Outport 5
Stop Mark
Outport 4
Stop Mark
Outport 5
Stop Mark
Outport 7
Stop Mark
Outport 6
Stop Mark
Outport 7
Stop Mark
Outport 4
Stop Mark
Outport 3
Stop Mark
TIME 88
Outport 4
Stop Mark
Outport 7
Stop Mark
Outport 4
Stop Mark
Outport 7
Stop Mark
Outport 5
Stop Mark
Outport 7
Stop Mark
Outport 6
Stop Mark
Outport 4
Stop Mark
Outport 3
Stop Mark
TIME 89
New Flit 5
New Flit 5
New Flit 5
New Flit 5
New Flit 19
New Flit 19
New Flit 19
New Flit 19
New Flit 20
New Flit 20
New Flit 20
New Flit 20
New Flit 49
New Flit 49
New Flit 49
New Flit 49
Outport 0
Stop Mark
Outport 4
Stop Mark
Outport 7
Stop Mark
Outport 4
Stop Mark
Outport 7
Stop Mark
Outport 5
Stop Mark
Outport 7
Stop Mark
Outport 7
Stop Mark
Outport 6
Stop Mark
Outport 4
Stop Mark
Outport 3
Stop Mark
TIME 90
Outport 0
Stop Mark
Outport 7
Stop Mark
Outport 4
Stop Mark
Outport 7
Stop Mark
Outport 5
Stop Mark
Outport 7
Stop Mark
Outport 7
Stop Mark
Outport 6
Stop Mark
Outport 4
Stop Mark
TIME 91
Outport 0
Stop Mark
Outport 7
Stop Mark
Outport 4
Stop Mark
Outport 0
Stop Mark
Outport 5
Stop Mark
Outport 7
Stop Mark
Outport 5
Stop Mark
Outport 7
Stop Mark
TIME 92
New Flit 57
New Flit 57
New Flit 57
New Flit 57
Outport 0
Stop Mark
Outport 7
Stop Mark
Outport 0
Stop Mark
Outport 5
Stop Mark
Outport 5
Stop Mark
Outport 7
Stop Mark
Outport 1
Stop Mark
TIME 93
New Flit 25
New Flit 25
New Flit 25
New Flit 25
Outport 1
Stop Mark
Outport 4
Stop Mark
Outport 7
Stop Mark
Outport 0
Stop Mark
Outport 4
Stop Mark
Outport 5
Stop Mark
Outport 1
Stop Mark
Outport 5
Stop Mark
Outport 6
Stop Mark
Outport 6
Stop Mark
Outport 1
Stop Mark
TIME 94
Outport 1
Stop Mark
Outport 1
Stop Mark
Outport 4
Stop Mark
Outport 1
Stop Mark
Outport 7
Stop Mark
Outport 0
Stop Mark
Outport 1
Stop Mark
Outport 4
Stop Mark
Outport 5
Stop Mark
Outport 1
Stop Mark
Outport 6
Stop Mark
Outport 6
Stop Mark
Outport 1
Stop Mark
TIME 95
Outport 1
Stop Mark
Outport 2
Stop Mark
Outport 1
Stop Mark
Outport 4
Stop Mark
Outport 1
Stop Mark
Outport 7
Stop Mark
Outport 1
Stop Mark
Outport 4
Stop Mark
Outport 5
Stop Mark
Outport 1
Stop Mark
Outport 6
Stop Mark
Outport 6
Stop Mark
Outport 1
Stop Mark
TIME 96
New Flit 11
New Flit 11
New Flit 11
New Flit 11
Outport 1
Stop Mark
Outport 2
Stop Mark
Outport 1
Stop Mark
Outport 4
Stop Mark
Outport 1
Stop Mark
Outport 6
Stop Mark
Outport 1
Stop Mark
Outport 4
Stop Mark
Outport 5
Stop Mark
Outport 1
Stop Mark
Outport 6
Stop Mark
Outport 6
Stop Mark
TIME 97
New Flit 53
New Flit 53
New Flit 53
New Flit 53
Outport 2
Stop Mark
Outport 5
Stop Mark
Outport 1
Stop Mark
Outport 1
Stop Mark
Outport 4
Stop Mark
Outport 6
Stop Mark
Outport 1
Stop Mark
Outport 5
Stop Mark
Outport 6
Stop Mark
TIME 98
New Flit 12
New Flit 12
New Flit 12
New Flit 12
Outport 5
Stop Mark
Outport 3
Stop Mark
Outport 4
Stop Mark
Outport 5
Stop Mark
Outport 6
Stop Mark
Outport 5
Stop Mark
Outport 7
Stop Mark
Outport 6
Stop Mark
Outport 0
Stop Mark
TIME 99
Outport 2
Stop Mark
Outport 3
Stop Mark
Outport 4
Stop Mark
Outport 5
Stop Mark
Outport 7
Stop Mark
Outport 6
Stop Mark
Outport 0
Stop Mark
TIME 100
New Flit 24
New Flit 24
New Flit 24
New Flit 24
Outport 5
Stop Mark
Outport 6
Stop Mark
Outport 3
Stop Mark
Outport 4
Stop Mark
Outport 6
Stop Mark
Outport 7
Stop Mark
Outport 6
Stop Mark
Outport 7
Stop Mark
Outport 0
Stop Mark
TIME 101
Outport 5
Stop Mark
Outport 6
Stop Mark
Outport 3
Stop Mark
Outport 5
Stop Mark
Outport 7
Stop Mark
Outport 1
Stop Mark
Outport 5
Stop Mark
Outport 7
Stop Mark
Outport 0
Stop Mark
TIME 102
Outport 6
Stop Mark
Outport 6
Stop Mark
Outport 5
Stop Mark
Outport 5
Stop Mark
Outport 6
Stop Mark
Outport 1
Stop Mark
Outport 5
Stop Mark
Outport 7
Stop Mark
TIME 103
New Flit 61
New Flit 61
New Flit 61
New Flit 61
Outport 6
Stop Mark
Outport 6
Stop Mark
Outport 0
Stop Mark
Outport 5
Stop Mark
Outport 6
Stop Mark
Outport 1
Stop Mark
Outport 0
Stop Mark
Outport 5
Stop Mark
Outport 7
Stop Mark
TIME 104
New Flit 24
New Flit 24
New Flit 24
New Flit 24
New Flit 49
New Flit 49
New Flit 49
New Flit 49
Outport 6
Stop Mark
Outport 0
Stop Mark
Outport 5
Stop Mark
Outport 4
Stop Mark
Outport 6
Stop Mark
Outport 1
Stop Mark
Outport 0
Stop Mark
Outport 5
Stop Mark
TIME 105
New Flit 17
New Flit 17
New Flit 17
New Flit 17
New Flit 55
New Flit 55
New Flit 55
New Flit 55
Outport 6
Stop Mark
Outport 0
Stop Mark
Outport 5
Stop Mark
Outport 4
Stop Mark
Outport 1
Stop Mark
Outport 6
Stop Mark
Outport 7
Stop Mark
Outport 0
Stop Mark
Outport 0
Stop Mark
TIME 106
Outport 0
Stop Mark
Outport 4
Stop Mark
Outport 1
Stop Mark
Outport 7
Stop Mark
Outport 0
Stop Mark
Outport 7
Stop Mark
Outport 0
Stop Mark
TIME 107
New Flit 4
New Flit 4
New Flit 4
New Flit 4
New Flit 20
New Flit 20
New Flit 20
New Flit 20
New Flit 59
New Flit 59
New Flit 59
New Flit 59
Outport 2
Stop Mark
Outport 0
Stop Mark
Outport 4
Stop Mark
Outport 1
Stop Mark
Outport 1
Stop Mark
Outport 7
Stop Mark
Outport 0
Stop Mark
Outport 7
Stop Mark
Outport 4
Stop Mark
TIME 108
New Flit 45
New Flit 45
New Flit 45
New Flit 45
New Flit 49
New Flit 49
New Flit 49
New Flit 49
Outport 2
Stop Mark
Outport 0
Stop Mark
Outport 4
Stop Mark
Outport 1
Stop Mark
Outport 1
Stop Mark
Outport 7
Stop Mark
Outport 0
Stop Mark
Outport 4
Stop Mark
Outport 7
Stop Mark
Outport 4
Stop Mark
TIME 109
New Flit 22
New Flit 22
New Flit 22
New Flit 22
Outport 2
Stop Mark
Outport 0
Stop Mark
Outport 4
Stop Mark
Outport 6
Stop Mark
Outport 1
Stop Mark
Outport 4
Stop Mark
Outport 7
Stop Mark
Outport 4
Stop Mark
Outport 6
Stop Mark
TIME 110
New Flit 8
New Flit 8
New Flit 8
New Flit 8
Outport 2
Stop Mark
Outport 0
Stop Mark
Outport 4
Stop Mark
Outport 6
Stop Mark
Outport 7
Stop Mark
Outport 1
Stop Mark
Outport 4
Stop Mark
Outport 4
Stop Mark
Outport 6
Stop Mark
TIME 111
New Flit 26
New Flit 26
New Flit 26
New Flit 26
Outport 4
Stop Mark
Outport 4
Stop Mark
Outport 6
Stop Mark
Outport 5
Stop Mark
Outport 7
Stop Mark
Outport 0
Stop Mark
Outport 4
Stop Mark
Outport 5
Stop Mark
Outport 6
Stop Mark
TIME 112
New Flit 19
New Flit 19
New Flit 19
New Flit 19
New Flit 44
New Flit 44
New Flit 44
New Flit 44
Outport 4
Stop Mark
Outport 4
Stop Mark
Outport 6
Stop Mark
Outport 5
Stop Mark
Outport 7
Stop Mark
Outport 0
Stop Mark
Outport 7
Stop Mark
Outport 5
Stop Mark
Outport 5
Stop Mark
Outport 6
Stop Mark
Outport 7
Stop Mark
TIME 113
New Flit 28
New Flit 28
New Flit 28
New Flit 28
Outport 4
Stop Mark
Outport 4
Stop Mark
Outport 4
Stop Mark
Outport 5
Stop Mark
Outport 7
Stop Mark
Outport 7
Stop Mark
Outport 0
Stop Mark
Outport 7
Stop Mark
Outport 5
Stop Mark
Outport 5
Stop Mark
Outport 7
Stop Mark
Outport 7
Stop Mark
TIME 114
New Flit 51
New Flit 51
New Flit 51
New Flit 51
Outport 4
Stop Mark
Outport 4
Stop Mark
Outport 4
Stop Mark
Outport 2
Stop Mark
Outport 4
Stop Mark
Outport 5
Stop Mark
Outport 7
Stop Mark
Outport 0
Stop Mark
Outport 2
Stop Mark
Outport 7
Stop Mark
Outport 5
Stop Mark
Outport 5
Stop Mark
Outport 7
Stop Mark
Outport 7
Stop Mark
TIME 115
New Flit 47
New Flit 47
New Flit 47
New Flit 47
Outport 4
Stop Mark
Outport 3
Stop Mark
Outport 4
Stop Mark
Outport 2
Stop Mark
Outport 7
Stop Mark
Outport 7
Stop Mark
Outport 2
Stop Mark
Outport 7
Stop Mark
Outport 5
Stop Mark
Outport 7
Stop Mark
Outport 7
Stop Mark
TIME 116
New Flit 24
New Flit 24
New Flit 24
New Flit 24
Outport 4
Stop Mark
Outport 3
Stop Mark
Outport 1
Stop Mark
Outport 0
Stop Mark
Outport 4
Stop Mark
Outport 5
Stop Mark
Outport 7
Stop Mark
Outport 7
Stop Mark
Outport 2
Stop Mark
Outport 5
Stop Mark
Outport 7
Stop Mark
Outport 7
Stop Mark
TIME 117
Outport 4
Stop Mark
Outport 3
Stop Mark
Outport 1
Stop Mark
Outport 0
Stop Mark
Outport 2
Stop Mark
Outport 5
Stop Mark
Outport 7
Stop Mark
Outport 5
Stop Mark
Outport 7
Stop Mark
Outport 2
Stop Mark
Outport 5
Stop Mark
Outport 2
Stop Mark
Outport 7
Stop Mark
Outport 7
Stop Mark
TIME 118
New Flit 32
New Flit 32
New Flit 32
New Flit 32
Outport 3
Stop Mark
Outport 1
Stop Mark
Outport 3
Stop Mark
Outport 0
Stop Mark
Outport 4
Stop Mark
Outport 5
Stop Mark
Outport 7
Stop Mark
Outport 4
Stop Mark
Outport 5
Stop Mark
Outport 7
Stop Mark
Outport 7
Stop Mark
Outport 5
Stop Mark
Outport 2
Stop Mark
Outport 7
Stop Mark
Outport 7
Stop Mark
TIME 119
New Flit 45
New Flit 45
New Flit 45
New Flit 45
Outport 6
Stop Mark
Outport 1
Stop Mark
Outport 3
Stop Mark
Outport 0
Stop Mark
Outport 0
Stop Mark
Outport 2
Stop Mark
Outport 5
Stop Mark
Outport 4
Stop Mark
Outport 5
Stop Mark
Outport 7
Stop Mark
Outport 7
Stop Mark
Outport 5
Stop Mark
Outport 2
Stop Mark
Outport 5
Stop Mark
Outport 7
Stop Mark
Outport 7
Stop Mark
TIME 120
New Flit 23
New Flit 23
New Flit 23
New Flit 23
New Flit 63
New Flit 63
New Flit 63
New Flit 63
Outport 3
Stop Mark
Outport 6
Stop Mark
Outport 3
Stop Mark
Outport 0
Stop Mark
Outport 7
Stop Mark
Outport 4
Stop Mark
Outport 5
Stop Mark
Outport 7
Stop Mark
Outport 7
Stop Mark
Outport 2
Stop Mark
Outport 5
Stop Mark
Outport 7
Stop Mark
TIME 121
New Flit 19
New Flit 19
New Flit 19
New Flit 19
Outport 3
Stop Mark
Outport 6
Stop Mark
Outport 3
Stop Mark
Outport 0
Stop Mark
Outport 6
Stop Mark
Outport 7
Stop Mark
Outport 3
Stop Mark
Outport 5
Stop Mark
Outport 7
Stop Mark
Outport 5
Stop Mark
Outport 7
Stop Mark
TIME 122
Outport 3
Stop Mark
Outport 6
Stop Mark
Outport 2
Stop Mark
Outport 0
Stop Mark
Outport 6
Stop Mark
Outport 7
Stop Mark
Outport 0
Stop Mark
Outport 4
Stop Mark
Outport 3
Stop Mark
Outport 5
Stop Mark
Outport 5
Stop Mark
Outport 7
Stop Mark
Outport 5
Stop Mark
Outport 7
Stop Mark
TIME 123
Outport 3
Stop Mark
Outport 2
Stop Mark
Outport 6
Stop Mark
Outport 7
Stop Mark
Outport 0
Stop Mark
Outport 3
Stop Mark
Outport 0
Stop Mark
Outport 3
Stop Mark
Outport 5
Stop Mark
Outport 5
Stop Mark
Outport 7
Stop Mark
Outport 4
Stop Mark
Outport 7
Stop Mark
TIME 124
Outport 2
Stop Mark
Outport 6
Stop Mark
Outport 0
Stop Mark
Outport 1
Stop Mark
Outport 3
Stop Mark
Outport 0
Stop Mark
Outport 5
Stop Mark
Outport 3
Stop Mark
Outport 5
Stop Mark
Outport 2
Stop Mark
Outport 5
Stop Mark
Outport 7
Stop Mark
Outport 4
Stop Mark
Outport 5
Stop Mark
Outport 7
Stop Mark
Outport 5
Stop Mark
TIME 125
New Flit 11
New Flit 11
New Flit 11
New Flit 11
Outport 3
Stop Mark
Outport 2
Stop Mark
Outport 0
Stop Mark
Outport 1
Stop Mark
Outport 3
Stop Mark
Outport 5
Stop Mark
Outport 0
Stop Mark
Outport 5
Stop Mark
Outport 5
Stop Mark
Outport 2
Stop Mark
Outport 4
Stop Mark
Outport 5
Stop Mark
Outport 5
Stop Mark
TIME 126
Outport 3
Stop Mark
Outport 1
Stop Mark
Outport 3
Stop Mark
Outport 5
Stop Mark
Outport 7
Stop Mark
Outport 0
Stop Mark
Outport 5
Stop Mark
Outport 0
Stop Mark
Outport 5
Stop Mark
Outport 7
Stop Mark
Outport 4
Stop Mark
Outport 5
Stop Mark
Outport 5
Stop Mark
TIME 127
Outport 3
Stop Mark
Outport 1
Stop Mark
Outport 5
Stop Mark
Outport 7
Stop Mark
Outport 5
Stop Mark
Outport 0
Stop Mark
Outport 5
Stop Mark
Outport 2
Stop Mark
Outport 5
Stop Mark
Outport 5
Stop Mark
TIME 128
New Flit 61
New Flit 61
New Flit 61
New Flit 61
Outport 3
Stop Mark
Outport 5
Stop Mark
Outport 7
Stop Mark
Outport 0
Stop Mark
Outport 5
Stop Mark
Outport 2
Stop Mark
Outport 6
Stop Mark
TIME 129
Outport 3
Stop Mark
Outport 5
Stop Mark
Outport 5
Stop Mark
Outport 0
Stop Mark
Outport 5
Stop Mark
Outport 7
Stop Mark
Outport 6
Stop Mark
Outport 7
Stop Mark
TIME 130
Outport 3
Stop Mark
Outport 5
Stop Mark
Outport 2
Stop Mark
Outport 7
Stop Mark
Outport 5
Stop Mark
Outport 7
Stop Mark
Outport 6
Stop Mark
Outport 7
Stop Mark
TIME 131
New Flit 21
New Flit 21
New Flit 21
New Flit 21
Outport 3
Stop Mark
Outport 0
Stop Mark
Outport 5
Stop Mark
Outport 2
Stop Mark
Outport 5
Stop Mark
Outport 7
Stop Mark
Outport 6
Stop Mark
Outport 7
Stop Mark
TIME 132
New Flit 4
New Flit 4
New Flit 4
New Flit 4
New Flit 41
New Flit 41
New Flit 41
New Flit 41
New Flit 44
New Flit 44
New Flit 44
New Flit 44
New Flit 49
New Flit 49
New Flit 49
New Flit 49
Outport 3
Stop Mark
Outport 0
Stop Mark
Outport 5
Stop Mark
Outport 2
Stop Mark
Outport 5
Stop Mark
Outport 7
Stop Mark
Outport 6
Stop Mark
Outport 7
Stop Mark
TIME 133
Outport 1
Stop Mark
Outport 0
Stop Mark
Outport 2
Stop Mark
Outport 6
Stop Mark
Outport 2
Stop Mark
TIME 134
Outport 0
Stop Mark
Outport 1
Stop Mark
Outport 0
Stop Mark
Outport 0
Stop Mark
Outport 5
Stop Mark
Outport 7
Stop Mark
Outport 6
Stop Mark
Outport 2
Stop Mark
TIME 135
New Flit 17
New Flit 17
New Flit 17
New Flit 17
Outport 0
Stop Mark
Outport 1
Stop Mark
Outport 0
Stop Mark
Outport 5
Stop Mark
Outport 4
Stop Mark
Outport 7
Stop Mark
Outport 6
Stop Mark
Outport 2
Stop Mark
TIME 136
Outport 0
Stop Mark
Outport 1
Stop Mark
Outport 5
Stop Mark
Outport 0
Stop Mark
Outport 5
Stop Mark
Outport 4
Stop Mark
Outport 4
Stop Mark
Outport 5
Stop Mark
Outport 7
Stop Mark
Outport 7
Stop Mark
Outport 2
Stop Mark
TIME 137
Outport 0
Stop Mark
Outport 5
Stop Mark
Outport 0
Stop Mark
Outport 5
Stop Mark
Outport 4
Stop Mark
Outport 4
Stop Mark
Outport 5
Stop Mark
Outport 7
Stop Mark
Outport 7
Stop Mark
TIME 138
Outport 5
Stop Mark
Outport 4
Stop Mark
Outport 4
Stop Mark
Outport 5
Stop Mark
Outport 7
Stop Mark
TIME 139
Outport 5
Stop Mark
Outport 0
Stop Mark
Outport 7
Stop Mark
Outport 1
Stop Mark
Outport 4
Stop Mark
Outport 5
Stop Mark
Outport 5
Stop Mark
Outport 7
Stop Mark
TIME 140
Outport 0
Stop Mark
Outport 7
Stop Mark
Outport 1
Stop Mark
Outport 7
Stop Mark
Outport 5
Stop Mark
TIME 141
Outport 6
Stop Mark
Outport 0
Stop Mark
Outport 7
Stop Mark
Outport 1
Stop Mark
Outport 7
Stop Mark
Outport 3
Stop Mark
Outport 6
Stop Mark
Outport 5
Stop Mark
TIME 142
New Flit 8
New Flit 8
New Flit 8
New Flit 8
New Flit 47
New Flit 47
New Flit 47
New Flit 47
Outport 6
Stop Mark
Outport 0
Stop Mark
Outport 7
Stop Mark
Outport 1
Stop Mark
Outport 7
Stop Mark
Outport 3
Stop Mark
Outport 6
Stop Mark
Outport 5
Stop Mark
TIME 143
Outport 6
Stop Mark
Outport 7
Stop Mark
Outport 3
Stop Mark
Outport 6
Stop Mark
TIME 144
Outport 3
Stop Mark
Outport 6
Stop Mark
Outport 3
Stop Mark
Outport 6
Stop Mark
TIME 145
New Flit 17
New Flit 17
New Flit 17
New Flit 17
Outport 3
Stop Mark
Outport 2
Stop Mark
Outport 6
Stop Mark
TIME 146
Outport 3
Stop Mark
Outport 7
Stop Mark
Outport 2
Stop Mark
Outport 7
Stop Mark
Outport 6
Stop Mark
Outport 6
Stop Mark
Outport 5
Stop Mark
Outport 1
Stop Mark
TIME 147
Outport 3
Stop Mark
Outport 7
Stop Mark
Outport 2
Stop Mark
Outport 7
Stop Mark
Outport 6
Stop Mark
Outport 6
Stop Mark
Outport 5
Stop Mark
Outport 1
Stop Mark
Outport 2
Stop Mark
TIME 148
New Flit 0
New Flit 0
New Flit 0
New Flit 0
Outport 7
Stop Mark
Outport 2
Stop Mark
Outport 7
Stop Mark
Outport 6
Stop Mark
Outport 6
Stop Mark
Outport 5
Stop Mark
Outport 2
Stop Mark
TIME 149
New Flit 37
New Flit 37
New Flit 37
New Flit 37
Outport 7
Stop Mark
Outport 5
Stop Mark
Outport 7
Stop Mark
Outport 6
Stop Mark
Outport 5
Stop Mark
Outport 1
Stop Mark
TIME 150
New Flit 34
New Flit 34
New Flit 34
New Flit 34
Outport 5
Stop Mark
Outport 2
Stop Mark
TIME 151
New Flit 1
New Flit 1
New Flit 1
New Flit 1
Outport 2
Stop Mark
Outport 5
Stop Mark
Outport 6
Stop Mark
Outport 2
Stop Mark
Outport 1
Stop Mark
TIME 152
New Flit 39
New Flit 39
New Flit 39
New Flit 39
Outport 2
Stop Mark
Outport 7
Stop Mark
Outport 5
Stop Mark
Outport 6
Stop Mark
Outport 2
Stop Mark
Outport 2
Stop Mark
TIME 153
New Flit 29
New Flit 29
New Flit 29
New Flit 29
New Flit 30
New Flit 30
New Flit 30
New Flit 30
Outport 2
Stop Mark
Outport 7
Stop Mark
Outport 4
Stop Mark
Outport 6
Stop Mark
Outport 2
Stop Mark
Outport 3
Stop Mark
TIME 154
Outport 2
Stop Mark
Outport 7
Stop Mark
Outport 4
Stop Mark
Outport 5
Stop Mark
Outport 6
Stop Mark
Outport 2
Stop Mark
Outport 3
Stop Mark
TIME 155
New Flit 54
New Flit 54
New Flit 54
New Flit 54
Outport 7
Stop Mark
Outport 4
Stop Mark
Outport 5
Stop Mark
Outport 3
Stop Mark
TIME 156
New Flit 58
New Flit 58
New Flit 58
New Flit 58
Outport 7
Stop Mark
Outport 4
Stop Mark
Outport 5
Stop Mark
Outport 3
Stop Mark
Outport 4
Stop Mark
Outport 3
Stop Mark
Outport 0
Stop Mark
TIME 157
New Flit 31
New Flit 31
New Flit 31
New Flit 31
New Flit 46
New Flit 46
New Flit 46
New Flit 46
Outport 7
Stop Mark
Outport 5
Stop Mark
Outport 5
Stop Mark
Outport 5
Stop Mark
Outport 4
Stop Mark
Outport 3
Stop Mark
Outport 0
Stop Mark
TIME 158
Outport 7
Stop Mark
Outport 4
Stop Mark
Outport 5
Stop Mark
Outport 5
Stop Mark
Outport 4
Stop Mark
Outport 3
Stop Mark
Outport 0
Stop Mark
TIME 159
Outport 7
Stop Mark
Outport 6
Stop Mark
Outport 4
Stop Mark
Outport 5
Stop Mark
Outport 5
Stop Mark
Outport 6
Stop Mark
Outport 4
Stop Mark
Outport 3
Stop Mark
Outport 0
Stop Mark
Outport 4
Stop Mark
TIME 160
Outport 6
Stop Mark
Outport 4
Stop Mark
Outport 5
Stop Mark
Outport 5
Stop Mark
Outport 6
Stop Mark
Outport 4
Stop Mark
Outport 4
Stop Mark
TIME 161
Outport 6
Stop Mark
Outport 4
Stop Mark
Outport 5
Stop Mark
Outport 6
Stop Mark
Outport 4
Stop Mark
Outport 4
Stop Mark
Outport 4
Stop Mark
TIME 162
Outport 4
Stop Mark
Outport 6
Stop Mark
Outport 5
Stop Mark
Outport 5
Stop Mark
Outport 5
Stop Mark
Outport 6
Stop Mark
Outport 4
Stop Mark
Outport 4
Stop Mark
Outport 4
Stop Mark
TIME 163
New Flit 2
New Flit 2
New Flit 2
New Flit 2
Outport 4
Stop Mark
Outport 0
Stop Mark
Outport 5
Stop Mark
Outport 5
Stop Mark
Outport 5
Stop Mark
Outport 4
Stop Mark
Outport 4
Stop Mark
TIME 164
Outport 4
Stop Mark
Outport 0
Stop Mark
Outport 5
Stop Mark
Outport 5
Stop Mark
Outport 6
Stop Mark
Outport 5
Stop Mark
Outport 4
Stop Mark
Outport 3
Stop Mark
TIME 165
Outport 4
Stop Mark
Outport 0
Stop Mark
Outport 5
Stop Mark
Outport 5
Stop Mark
Outport 6
Stop Mark
Outport 0
Stop Mark
Outport 3
Stop Mark
Outport 0
Stop Mark
TIME 166
Outport 0
Stop Mark
Outport 1
Stop Mark
Outport 6
Stop Mark
Outport 7
Stop Mark
Outport 0
Stop Mark
Outport 3
Stop Mark
Outport 0
Stop Mark
TIME 167
Outport 5
Stop Mark
Outport 3
Stop Mark
Outport 5
Stop Mark
Outport 5
Stop Mark
Outport 1
Stop Mark
Outport 6
Stop Mark
Outport 7
Stop Mark
Outport 0
Stop Mark
Outport 3
Stop Mark
Outport 0
Stop Mark
TIME 168
New Flit 20
New Flit 20
New Flit 20
New Flit 20
Outport 5
Stop Mark
Outport 2
Stop Mark
Outport 3
Stop Mark
Outport 5
Stop Mark
Outport 5
Stop Mark
Outport 1
Stop Mark
Outport 7
Stop Mark
Outport 0
Stop Mark
Outport 0
Stop Mark
TIME 169
New Flit 35
New Flit 35
New Flit 35
New Flit 35
Outport 5
Stop Mark
Outport 2
Stop Mark
Outport 3
Stop Mark
Outport 5
Stop Mark
Outport 5
Stop Mark
Outport 1
Stop Mark
Outport 7
Stop Mark
Outport 6
Stop Mark
TIME 170
New Flit 39
New Flit 39
New Flit 39
New Flit 39
Outport 5
Stop Mark
Outport 2
Stop Mark
Outport 3
Stop Mark
Outport 5
Stop Mark
Outport 5
Stop Mark
Outport 6
Stop Mark
TIME 171
Outport 2
Stop Mark
Outport 3
Stop Mark
Outport 6
Stop Mark
TIME 172
Outport 0
Stop Mark
Outport 3
Stop Mark
Outport 7
Stop Mark
Outport 5
Stop Mark
Outport 6
Stop Mark
TIME 173
New Flit 61
New Flit 61
New Flit 61
New Flit 61
Outport 0
Stop Mark
Outport 3
Stop Mark
Outport 7
Stop Mark
Outport 5
Stop Mark
Outport 7
Stop Mark
TIME 174
New Flit 8
New Flit 8
New Flit 8
New Flit 8
Outport 0
Stop Mark
Outport 3
Stop Mark
Outport 7
Stop Mark
Outport 5
Stop Mark
Outport 7
Stop Mark
Outport 5
Stop Mark
Outport 3
Stop Mark
Outport 1
Stop Mark
TIME 175
New Flit 55
New Flit 55
New Flit 55
New Flit 55
Outport 0
Stop Mark
Outport 7
Stop Mark
Outport 5
Stop Mark
Outport 7
Stop Mark
Outport 5
Stop Mark
Outport 3
Stop Mark
Outport 1
Stop Mark
TIME 176
Outport 7
Stop Mark
Outport 5
Stop Mark
Outport 3
Stop Mark
Outport 1
Stop Mark
TIME 177
New Flit 2
New Flit 2
New Flit 2
New Flit 2
New Flit 37
New Flit 37
New Flit 37
New Flit 37
Outport 1
Stop Mark
Outport 0
Stop Mark
Outport 5
Stop Mark
Outport 3
Stop Mark
Outport 1
Stop Mark
Outport 5
Stop Mark
TIME 178
Outport 1
Stop Mark
Outport 7
Stop Mark
Outport 0
Stop Mark
Outport 5
Stop Mark
TIME 179
New Flit 7
New Flit 7
New Flit 7
New Flit 7
Outport 1
Stop Mark
Outport 7
Stop Mark
Outport 0
Stop Mark
Outport 6
Stop Mark
Outport 5
Stop Mark
Outport 6
Stop Mark
TIME 180
New Flit 16
New Flit 16
New Flit 16
New Flit 16
Outport 1
Stop Mark
Outport 7
Stop Mark
Outport 0
Stop Mark
Outport 6
Stop Mark
Outport 5
Stop Mark
Outport 6
Stop Mark
TIME 181
New Flit 11
New Flit 11
New Flit 11
New Flit 11
Outport 7
Stop Mark
Outport 6
Stop Mark
Outport 0
Stop Mark
Outport 6
Stop Mark
Outport 7
Stop Mark
Outport 6
Stop Mark
TIME 182
Outport 6
Stop Mark
Outport 0
Stop Mark
Outport 6
Stop Mark
Outport 7
Stop Mark
Outport 2
Stop Mark
Outport 6
Stop Mark
TIME 183
Outport 6
Stop Mark
Outport 7
Stop Mark
Outport 0
Stop Mark
Outport 7
Stop Mark
Outport 2
Stop Mark
TIME 184
New Flit 36
New Flit 36
New Flit 36
New Flit 36
Outport 6
Stop Mark
Outport 7
Stop Mark
Outport 4
Stop Mark
Outport 0
Stop Mark
Outport 7
Stop Mark
Outport 2
Stop Mark
Outport 2
Stop Mark
TIME 185
New Flit 0
New Flit 0
New Flit 0
New Flit 0
Outport 5
Stop Mark
Outport 6
Stop Mark
Outport 7
Stop Mark
Outport 4
Stop Mark
Outport 2
Stop Mark
Outport 2
Stop Mark
TIME 186
Outport 5
Stop Mark
Outport 6
Stop Mark
Outport 7
Stop Mark
Outport 4
Stop Mark
Outport 6
Stop Mark
Outport 1
Stop Mark
Outport 7
Stop Mark
Outport 2
Stop Mark
TIME 187
Outport 5
Stop Mark
Outport 6
Stop Mark
Outport 4
Stop Mark
Outport 6
Stop Mark
Outport 1
Stop Mark
Outport 7
Stop Mark
Outport 2
Stop Mark
TIME 188
New Flit 36
New Flit 36
New Flit 36
New Flit 36
New Flit 40
New Flit 40
New Flit 40
New Flit 40
Outport 5
Stop Mark
Outport 6
Stop Mark
Outport 6
Stop Mark
Outport 1
Stop Mark
Outport 6
Stop Mark
Outport 7
Stop Mark
TIME 189
New Flit 2
New Flit 2
New Flit 2
New Flit 2
New Flit 44
New Flit 44
New Flit 44
New Flit 44
Outport 7
Stop Mark
Outport 4
Stop Mark
Outport 6
Stop Mark
Outport 1
Stop Mark
Outport 6
Stop Mark
Outport 7
Stop Mark
TIME 190
Outport 6
Stop Mark
Outport 7
Stop Mark
Outport 5
Stop Mark
Outport 4
Stop Mark
Outport 2
Stop Mark
Outport 6
Stop Mark
TIME 191
Outport 6
Stop Mark
Outport 7
Stop Mark
Outport 5
Stop Mark
Outport 4
Stop Mark
Outport 2
Stop Mark
Outport 6
Stop Mark
Outport 7
Stop Mark
Outport 6
Stop Mark
TIME 192
New Flit 42
New Flit 42
New Flit 42
New Flit 42
New Flit 51
New Flit 51
New Flit 51
New Flit 51
New Flit 63
New Flit 63
New Flit 63
New Flit 63
Outport 6
Stop Mark
Outport 7
Stop Mark
Outport 5
Stop Mark
Outport 4
Stop Mark
Outport 2
Stop Mark
Outport 6
Stop Mark
Outport 6
Stop Mark
Outport 7
Stop Mark
Outport 5
Stop Mark
TIME 193
Outport 6
Stop Mark
Outport 5
Stop Mark
Outport 7
Stop Mark
Outport 2
Stop Mark
Outport 6
Stop Mark
Outport 6
Stop Mark
Outport 7
Stop Mark
Outport 5
Stop Mark
Outport 7
Stop Mark
Outport 2
Stop Mark
TIME 194
Outport 7
Stop Mark
Outport 4
Stop Mark
Outport 6
Stop Mark
Outport 6
Stop Mark
Outport 7
Stop Mark
Outport 5
Stop Mark
Outport 7
Stop Mark
Outport 2
Stop Mark
TIME 195
New Flit 56
New Flit 56
New Flit 56
New Flit 56
Outport 1
Stop Mark
Outport 7
Stop Mark
Outport 2
Stop Mark
Outport 4
Stop Mark
Outport 6
Stop Mark
Outport 5
Stop Mark
Outport 7
Stop Mark
Outport 2
Stop Mark
TIME 196
Outport 1
Stop Mark
Outport 7
Stop Mark
Outport 4
Stop Mark
Outport 2
Stop Mark
Outport 7
Stop Mark
Outport 4
Stop Mark
Outport 4
Stop Mark
Outport 7
Stop Mark
Outport 3
Stop Mark
Outport 4
Stop Mark
Outport 2
Stop Mark
Outport 4
Stop Mark
TIME 197
New Flit 16
New Flit 16
New Flit 16
New Flit 16
New Flit 25
New Flit 25
New Flit 25
New Flit 25
Outport 1
Stop Mark
Outport 4
Stop Mark
Outport 2
Stop Mark
Outport 7
Stop Mark
Outport 4
Stop Mark
Outport 4
Stop Mark
Outport 5
Stop Mark
Outport 3
Stop Mark
Outport 3
Stop Mark
Outport 4
Stop Mark
Outport 4
Stop Mark
TIME 198
New Flit 17
New Flit 17
New Flit 17
New Flit 17
Outport 1
Stop Mark
Outport 4
Stop Mark
Outport 2
Stop Mark
Outport 7
Stop Mark
Outport 1
Stop Mark
Outport 4
Stop Mark
Outport 5
Stop Mark
Outport 3
Stop Mark
Outport 3
Stop Mark
Outport 4
Stop Mark
Outport 4
Stop Mark
TIME 199
Outport 4
Stop Mark
Outport 7
Stop Mark
Outport 1
Stop Mark
Outport 0
Stop Mark
Outport 4
Stop Mark
Outport 5
Stop Mark
Outport 3
Stop Mark
Outport 7
Stop Mark
Outport 3
Stop Mark
Outport 4
Stop Mark
Outport 4
Stop Mark
TIME 200
New Flit 2
New Flit 2
New Flit 2
New Flit 2
New Flit 36
New Flit 36
New Flit 36
New Flit 36
Outport 4
Stop Mark
Outport 1
Stop Mark
Outport 0
Stop Mark
Outport 5
Stop Mark
Outport 3
Stop Mark
Outport 7
Stop Mark
TIME 201
New Flit 1
New Flit 1
New Flit 1
New Flit 1
Outport 0
Stop Mark
Outport 4
Stop Mark
Outport 5
Stop Mark
Outport 7
Stop Mark
Outport 1
Stop Mark
Outport 0
Stop Mark
Outport 4
Stop Mark
Outport 7
Stop Mark
Outport 7
Stop Mark
TIME 202
Outport 0
Stop Mark
Outport 4
Stop Mark
Outport 4
Stop Mark
Outport 5
Stop Mark
Outport 7
Stop Mark
Outport 0
Stop Mark
Outport 7
Stop Mark
Outport 4
Stop Mark
Outport 7
Stop Mark
Outport 7
Stop Mark
TIME 203
Outport 0
Stop Mark
Outport 4
Stop Mark
Outport 4
Stop Mark
Outport 5
Stop Mark
Outport 7
Stop Mark
Outport 1
Stop Mark
Outport 7
Stop Mark
Outport 4
Stop Mark
Outport 7
Stop Mark
TIME 204
New Flit 0
New Flit 0
New Flit 0
New Flit 0
Outport 0
Stop Mark
Outport 5
Stop Mark
Outport 4
Stop Mark
Outport 4
Stop Mark
Outport 5
Stop Mark
Outport 7
Stop Mark
Outport 1
Stop Mark
Outport 1
Stop Mark
Outport 7
Stop Mark
Outport 4
Stop Mark
Outport 7
Stop Mark
TIME 205
New Flit 52
New Flit 52
New Flit 52
New Flit 52
New Flit 53
New Flit 53
New Flit 53
New Flit 53
Outport 7
Stop Mark
Outport 5
Stop Mark
Outport 4
Stop Mark
Outport 4
Stop Mark
Outport 1
Stop Mark
Outport 1
Stop Mark
Outport 7
Stop Mark
Outport 4
Stop Mark
TIME 206
Outport 3
Stop Mark
Outport 7
Stop Mark
Outport 5
Stop Mark
Outport 4
Stop Mark
Outport 1
Stop Mark
Outport 1
Stop Mark
Outport 4
Stop Mark
Outport 7
Stop Mark
Outport 7
Stop Mark
TIME 207
Outport 3
Stop Mark
Outport 7
Stop Mark
Outport 5
Stop Mark
Outport 4
Stop Mark
Outport 1
Stop Mark
Outport 4
Stop Mark
Outport 1
Stop Mark
Outport 4
Stop Mark
Outport 7
Stop Mark
Outport 6
Stop Mark
Outport 7
Stop Mark
TIME 208
New Flit 9
New Flit 9
New Flit 9
New Flit 9
New Flit 38
New Flit 38
New Flit 38
New Flit 38
Outport 3
Stop Mark
Outport 7
Stop Mark
Outport 1
Stop Mark
Outport 4
Stop Mark
Outport 4
Stop Mark
Outport 7
Stop Mark
Outport 3
Stop Mark
Outport 6
Stop Mark
Outport 7
Stop Mark
Outport 0
Stop Mark
TIME 209
Outport 3
Stop Mark
Outport 6
Stop Mark
Outport 7
Stop Mark
Outport 1
Stop Mark
Outport 4
Stop Mark
Outport 7
Stop Mark
Outport 3
Stop Mark
Outport 4
Stop Mark
Outport 7
Stop Mark
Outport 0
Stop Mark
Outport 6
Stop Mark
TIME 210
Outport 6
Stop Mark
Outport 7
Stop Mark
Outport 1
Stop Mark
Outport 4
Stop Mark
Outport 4
Stop Mark
Outport 6
Stop Mark
Outport 0
Stop Mark
Outport 6
Stop Mark
TIME 211
Outport 6
Stop Mark
Outport 7
Stop Mark
Outport 7
Stop Mark
Outport 2
Stop Mark
Outport 3
Stop Mark
Outport 4
Stop Mark
Outport 0
Stop Mark
Outport 6
Stop Mark
TIME 212
New Flit 38
New Flit 38
New Flit 38
New Flit 38
Outport 4
Stop Mark
Outport 6
Stop Mark
Outport 7
Stop Mark
Outport 6
Stop Mark
Outport 4
Stop Mark
Outport 7
Stop Mark
Outport 2
Stop Mark
Outport 4
Stop Mark
Outport 5
Stop Mark
Outport 6
Stop Mark
Outport 6
Stop Mark
Outport 3
Stop Mark
TIME 213
Outport 4
Stop Mark
Outport 6
Stop Mark
Outport 4
Stop Mark
Outport 7
Stop Mark
Outport 2
Stop Mark
Outport 3
Stop Mark
Outport 5
Stop Mark
Outport 6
Stop Mark
Outport 3
Stop Mark
TIME 214
Outport 4
Stop Mark
Outport 6
Stop Mark
Outport 2
Stop Mark
Outport 4
Stop Mark
Outport 7
Stop Mark
Outport 2
Stop Mark
Outport 5
Stop Mark
Outport 6
Stop Mark
Outport 3
Stop Mark
TIME 215
New Flit 50
New Flit 50
New Flit 50
New Flit 50
Outport 4
Stop Mark
Outport 4
Stop Mark
Outport 6
Stop Mark
Outport 2
Stop Mark
Outport 4
Stop Mark
Outport 5
Stop Mark
Outport 6
Stop Mark
TIME 216
Outport 1
Stop Mark
Outport 4
Stop Mark
Outport 1
Stop Mark
Outport 2
Stop Mark
Outport 5
Stop Mark
Outport 5
Stop Mark
Outport 6
Stop Mark
Outport 3
Stop Mark
TIME 217
Outport 6
Stop Mark
Outport 1
Stop Mark
Outport 4
Stop Mark
Outport 1
Stop Mark
Outport 2
Stop Mark
Outport 1
Stop Mark
Outport 3
Stop Mark
Outport 5
Stop Mark
Outport 5
Stop Mark
Outport 5
Stop Mark
TIME 218
New Flit 11
New Flit 11
New Flit 11
New Flit 11
Outport 6
Stop Mark
Outport 1
Stop Mark
Outport 4
Stop Mark
Outport 1
Stop Mark
Outport 1
Stop Mark
Outport 3
Stop Mark
Outport 5
Stop Mark
Outport 5
Stop Mark
Outport 5
Stop Mark
TIME 219
New Flit 58
New Flit 58
New Flit 58
New Flit 58
Outport 6
Stop Mark
Outport 1
Stop Mark
Outport 1
Stop Mark
Outport 1
Stop Mark
Outport 3
Stop Mark
Outport 5
Stop Mark
Outport 5
Stop Mark
Outport 5
Stop Mark
Outport 4
Stop Mark
TIME 220
New Flit 0
New Flit 0
New Flit 0
New Flit 0
Outport 6
Stop Mark
Outport 4
Stop Mark
Outport 1
Stop Mark
Outport 3
Stop Mark
Outport 5
Stop Mark
Outport 5
Stop Mark
Outport 4
Stop Mark
TIME 221
New Flit 37
New Flit 37
New Flit 37
New Flit 37
Outport 4
Stop Mark
Outport 5
Stop Mark
Outport 5
Stop Mark
Outport 4
Stop Mark
TIME 222
New Flit 33
New Flit 33
New Flit 33
New Flit 33
Outport 5
Stop Mark
Outport 4
Stop Mark
Outport 6
Stop Mark
Outport 5
Stop Mark
Outport 5
Stop Mark
Outport 5
Stop Mark
Outport 4
Stop Mark
TIME 223
New Flit 13
New Flit 13
New Flit 13
New Flit 13
Outport 5
Stop Mark
Outport 4
Stop Mark
Outport 1
Stop Mark
Outport 6
Stop Mark
Outport 5
Stop Mark
Outport 5
Stop Mark
Outport 5
Stop Mark
Outport 5
Stop Mark
TIME 224
Outport 4
Stop Mark
Outport 5
Stop Mark
Outport 1
Stop Mark
Outport 7
Stop Mark
Outport 6
Stop Mark
Outport 5
Stop Mark
Outport 5
Stop Mark
Outport 5
Stop Mark
Outport 7
Stop Mark
TIME 225
Outport 4
Stop Mark
Outport 5
Stop Mark
Outport 7
Stop Mark
Outport 6
Stop Mark
Outport 5
Stop Mark
Outport 5
Stop Mark
Outport 5
Stop Mark
Outport 7
Stop Mark
TIME 226
New Flit 59
New Flit 59
New Flit 59
New Flit 59
Outport 4
Stop Mark
Outport 1
Stop Mark
Outport 4
Stop Mark
Outport 5
Stop Mark
Outport 5
Stop Mark
Outport 5
Stop Mark
Outport 7
Stop Mark
TIME 227
Outport 4
Stop Mark
Outport 5
Stop Mark
Outport 4
Stop Mark
Outport 7
Stop Mark
Outport 4
Stop Mark
Outport 7
Stop Mark
Outport 2
Stop Mark
Outport 5
Stop Mark
Outport 5
Stop Mark
Outport 1
Stop Mark
Outport 7
Stop Mark
TIME 228
Outport 5
Stop Mark
Outport 4
Stop Mark
Outport 1
Stop Mark
Outport 4
Stop Mark
Outport 7
Stop Mark
Outport 2
Stop Mark
Outport 5
Stop Mark
Outport 5
Stop Mark
Outport 1
Stop Mark
Outport 7
Stop Mark
TIME 229
Outport 0
Stop Mark
Outport 5
Stop Mark
Outport 6
Stop Mark
Outport 4
Stop Mark
Outport 7
Stop Mark
Outport 4
Stop Mark
Outport 7
Stop Mark
Outport 2
Stop Mark
Outport 5
Stop Mark
Outport 7
Stop Mark
Outport 1
Stop Mark
Outport 7
Stop Mark
TIME 230
Outport 0
Stop Mark
Outport 5
Stop Mark
Outport 6
Stop Mark
Outport 4
Stop Mark
Outport 7
Stop Mark
Outport 2
Stop Mark
Outport 5
Stop Mark
Outport 7
Stop Mark
Outport 1
Stop Mark
Outport 7
Stop Mark
Outport 6
Stop Mark
TIME 231
New Flit 39
New Flit 39
New Flit 39
New Flit 39
Outport 0
Stop Mark
Outport 6
Stop Mark
Outport 0
Stop Mark
Outport 4
Stop Mark
Outport 5
Stop Mark
Outport 7
Stop Mark
Outport 7
Stop Mark
Outport 6
Stop Mark
TIME 232
New Flit 45
New Flit 45
New Flit 45
New Flit 45
Outport 6
Stop Mark
Outport 4
Stop Mark
Outport 3
Stop Mark
Outport 0
Stop Mark
Outport 4
Stop Mark
Outport 5
Stop Mark
Outport 7
Stop Mark
Outport 6
Stop Mark
TIME 233
Outport 0
Stop Mark
Outport 4
Stop Mark
Outport 3
Stop Mark
Outport 0
Stop Mark
Outport 3
Stop Mark
Outport 4
Stop Mark
Outport 5
Stop Mark
Outport 6
Stop Mark
TIME 234
New Flit 52
New Flit 52
New Flit 52
New Flit 52
Outport 4
Stop Mark
Outport 3
Stop Mark
Outport 6
Stop Mark
Outport 7
Stop Mark
Outport 0
Stop Mark
Outport 3
Stop Mark
Outport 6
Stop Mark
Outport 4
Stop Mark
TIME 235
Outport 4
Stop Mark
Outport 3
Stop Mark
Outport 6
Stop Mark
Outport 7
Stop Mark
Outport 3
Stop Mark
Outport 6
Stop Mark
Outport 2
Stop Mark
TIME 236
Outport 6
Stop Mark
Outport 7
Stop Mark
Outport 3
Stop Mark
Outport 6
Stop Mark
Outport 5
Stop Mark
Outport 6
Stop Mark
Outport 2
Stop Mark
TIME 237
Outport 6
Stop Mark
Outport 7
Stop Mark
Outport 6
Stop Mark
Outport 5
Stop Mark
Outport 6
Stop Mark
Outport 2
Stop Mark
Outport 7
Stop Mark
TIME 238
Outport 6
Stop Mark
Outport 5
Stop Mark
Outport 6
Stop Mark
Outport 2
Stop Mark
Outport 4
Stop Mark
Outport 7
Stop Mark
TIME 239
New Flit 7
New Flit 7
New Flit 7
New Flit 7
Outport 1
Stop Mark
Outport 6
Stop Mark
Outport 6
Stop Mark
Outport 5
Stop Mark
Outport 6
Stop Mark
Outport 6
Stop Mark
Outport 0
Stop Mark
Outport 4
Stop Mark
Outport 7
Stop Mark
TIME 240
Outport 1
Stop Mark
Outport 6
Stop Mark
Outport 6
Stop Mark
Outport 6
Stop Mark
Outport 0
Stop Mark
Outport 1
Stop Mark
Outport 4
Stop Mark
Outport 7
Stop Mark
TIME 241
New Flit 17
New Flit 17
New Flit 17
New Flit 17
Outport 1
Stop Mark
Outport 6
Stop Mark
Outport 5
Stop Mark
Outport 6
Stop Mark
Outport 6
Stop Mark
Outport 1
Stop Mark
Outport 2
Stop Mark
Outport 4
Stop Mark
TIME 242
New Flit 35
New Flit 35
New Flit 35
New Flit 35
Outport 1
Stop Mark
Outport 5
Stop Mark
Outport 6
Stop Mark
Outport 1
Stop Mark
Outport 6
Stop Mark
Outport 0
Stop Mark
Outport 2
Stop Mark
TIME 243
Outport 7
Stop Mark
Outport 5
Stop Mark
Outport 1
Stop Mark
Outport 1
Stop Mark
Outport 2
Stop Mark
Outport 4
Stop Mark
TIME 244
New Flit 3
New Flit 3
New Flit 3
New Flit 3
Outport 7
Stop Mark
Outport 5
Stop Mark
Outport 1
Stop Mark
Outport 0
Stop Mark
Outport 1
Stop Mark
Outport 2
Stop Mark
Outport 0
Stop Mark
Outport 4
Stop Mark
TIME 245
Outport 7
Stop Mark
Outport 4
Stop Mark
Outport 1
Stop Mark
Outport 1
Stop Mark
Outport 1
Stop Mark
Outport 0
Stop Mark
Outport 4
Stop Mark
TIME 246
Outport 7
Stop Mark
Outport 4
Stop Mark
Outport 0
Stop Mark
Outport 4
Stop Mark
Outport 1
Stop Mark
Outport 0
Stop Mark
Outport 4
Stop Mark
TIME 247
Outport 4
Stop Mark
Outport 0
Stop Mark
Outport 4
Stop Mark
Outport 1
Stop Mark
Outport 0
Stop Mark
TIME 248
New Flit 50
New Flit 50
New Flit 50
New Flit 50
New Flit 59
New Flit 59
New Flit 59
New Flit 59
Outport 5
Stop Mark
Outport 4
Stop Mark
Outport 0
Stop Mark
Outport 4
Stop Mark
TIME 249
Outport 5
Stop Mark
Outport 0
Stop Mark
Outport 4
Stop Mark
TIME 250
New Flit 31
New Flit 31
New Flit 31
New Flit 31
Outport 5
Stop Mark
Outport 6
Stop Mark
Outport 4
Stop Mark
Outport 1
Stop Mark
TIME 251
Outport 5
Stop Mark
Outport 6
Stop Mark
Outport 4
Stop Mark
Outport 1
Stop Mark
Outport 4
Stop Mark
TIME 252
Outport 6
Stop Mark
Outport 4
Stop Mark
Outport 1
Stop Mark
Outport 4
Stop Mark
Outport 4
Stop Mark
Outport 6
Stop Mark
TIME 253
Outport 5
Stop Mark
Outport 6
Stop Mark
Outport 4
Stop Mark
Outport 1
Stop Mark
Outport 4
Stop Mark
Outport 4
Stop Mark
Outport 6
Stop Mark
TIME 254
New Flit 42
New Flit 42
New Flit 42
New Flit 42
Outport 5
Stop Mark
Outport 7
Stop Mark
Outport 4
Stop Mark
Outport 4
Stop Mark
Outport 6
Stop Mark
TIME 255
Outport 5
Stop Mark
Outport 0
Stop Mark
Outport 6
Stop Mark
Outport 7
Stop Mark
Outport 4
Stop Mark
Outport 6
Stop Mark
TIME 256
New Flit 36
New Flit 36
New Flit 36
New Flit 36
Outport 5
Stop Mark
Outport 0
Stop Mark
Outport 6
Stop Mark
Outport 7
Stop Mark
Outport 1
Stop Mark
TIME 257
Outport 0
Stop Mark
Outport 6
Stop Mark
Outport 7
Stop Mark
Outport 1
Stop Mark
Outport 7
Stop Mark
TIME 258
New Flit 18
New Flit 18
New Flit 18
New Flit 18
Outport 0
Stop Mark
Outport 6
Stop Mark
Outport 7
Stop Mark
Outport 1
Stop Mark
Outport 7
Stop Mark
TIME 259
Outport 3
Stop Mark
Outport 7
Stop Mark
Outport 1
Stop Mark
Outport 7
Stop Mark
Outport 4
Stop Mark
TIME 260
Outport 3
Stop Mark
Outport 6
Stop Mark
Outport 7
Stop Mark
Outport 5
Stop Mark
Outport 6
Stop Mark
Outport 7
Stop Mark
Outport 4
Stop Mark
TIME 261
New Flit 20
New Flit 20
New Flit 20
New Flit 20
New Flit 41
New Flit 41
New Flit 41
New Flit 41
Outport 3
Stop Mark
Outport 6
Stop Mark
Outport 7
Stop Mark
Outport 5
Stop Mark
Outport 6
Stop Mark
Outport 4
Stop Mark
TIME 262
New Flit 18
New Flit 18
New Flit 18
New Flit 18
New Flit 29
New Flit 29
New Flit 29
New Flit 29
Outport 3
Stop Mark
Outport 4
Stop Mark
Outport 6
Stop Mark
Outport 5
Stop Mark
Outport 6
Stop Mark
Outport 7
Stop Mark
Outport 4
Stop Mark
TIME 263
New Flit 35
New Flit 35
New Flit 35
New Flit 35
Outport 4
Stop Mark
Outport 7
Stop Mark
Outport 6
Stop Mark
Outport 5
Stop Mark
Outport 6
Stop Mark
Outport 7
Stop Mark
TIME 264
Outport 4
Stop Mark
Outport 7
Stop Mark
Outport 7
Stop Mark
TIME 265
New Flit 20
New Flit 20
New Flit 20
New Flit 20
Outport 4
Stop Mark
Outport 7
Stop Mark
Outport 7
Stop Mark
Outport 4
Stop Mark
Outport 7
Stop Mark
Outport 7
Stop Mark
Outport 3
Stop Mark
Outport 0
Stop Mark
TIME 266
New Flit 60
New Flit 60
New Flit 60
New Flit 60
Outport 5
Stop Mark
Outport 7
Stop Mark
Outport 4
Stop Mark
Outport 7
Stop Mark
Outport 0
Stop Mark
Outport 4
Stop Mark
Outport 7
Stop Mark
Outport 3
Stop Mark
Outport 0
Stop Mark
TIME 267
New Flit 8
New Flit 8
New Flit 8
New Flit 8
New Flit 23
New Flit 23
New Flit 23
New Flit 23
New Flit 59
New Flit 59
New Flit 59
New Flit 59
Outport 5
Stop Mark
Outport 4
Stop Mark
Outport 7
Stop Mark
Outport 0
Stop Mark
Outport 4
Stop Mark
Outport 4
Stop Mark
Outport 7
Stop Mark
Outport 3
Stop Mark
Outport 0
Stop Mark
TIME 268
Outport 2
Stop Mark
Outport 5
Stop Mark
Outport 4
Stop Mark
Outport 7
Stop Mark
Outport 0
Stop Mark
Outport 4
Stop Mark
Outport 4
Stop Mark
Outport 7
Stop Mark
Outport 3
Stop Mark
Outport 0
Stop Mark
TIME 269
New Flit 49
New Flit 49
New Flit 49
New Flit 49
Outport 2
Stop Mark
Outport 5
Stop Mark
Outport 4
Stop Mark
Outport 5
Stop Mark
Outport 7
Stop Mark
Outport 0
Stop Mark
Outport 4
Stop Mark
TIME 270
Outport 2
Stop Mark
Outport 2
Stop Mark
Outport 7
Stop Mark
Outport 5
Stop Mark
Outport 7
Stop Mark
Outport 4
Stop Mark
Outport 5
Stop Mark
TIME 271
Outport 4
Stop Mark
Outport 2
Stop Mark
Outport 2
Stop Mark
Outport 5
Stop Mark
Outport 7
Stop Mark
Outport 5
Stop Mark
Outport 7
Stop Mark
Outport 2
Stop Mark
Outport 7
Stop Mark
Outport 4
Stop Mark
Outport 7
Stop Mark
Outport 5
Stop Mark
TIME 272
Outport 4
Stop Mark
Outport 2
Stop Mark
Outport 5
Stop Mark
Outport 7
Stop Mark
Outport 5
Stop Mark
Outport 7
Stop Mark
Outport 2
Stop Mark
Outport 7
Stop Mark
Outport 4
Stop Mark
Outport 6
Stop Mark
Outport 7
Stop Mark
Outport 5
Stop Mark
TIME 273
New Flit 42
New Flit 42
New Flit 42
New Flit 42
Outport 4
Stop Mark
Outport 2
Stop Mark
Outport 5
Stop Mark
Outport 7
Stop Mark
Outport 7
Stop Mark
Outport 2
Stop Mark
Outport 7
Stop Mark
Outport 4
Stop Mark
Outport 6
Stop Mark
Outport 6
Stop Mark
Outport 7
Stop Mark
Outport 5
Stop Mark
TIME 274
Outport 4
Stop Mark
Outport 2
Stop Mark
Outport 5
Stop Mark
Outport 5
Stop Mark
Outport 7
Stop Mark
Outport 2
Stop Mark
Outport 7
Stop Mark
Outport 4
Stop Mark
Outport 6
Stop Mark
Outport 6
Stop Mark
Outport 7
Stop Mark
TIME 275
Outport 1
Stop Mark
Outport 2
Stop Mark
Outport 5
Stop Mark
Outport 7
Stop Mark
Outport 4
Stop Mark
Outport 6
Stop Mark
Outport 6
Stop Mark
Outport 7
Stop Mark
TIME 276
New Flit 12
New Flit 12
New Flit 12
New Flit 12
New Flit 38
New Flit 38
New Flit 38
New Flit 38
Outport 1
Stop Mark
Outport 2
Stop Mark
Outport 0
Stop Mark
Outport 5
Stop Mark
Outport 7
Stop Mark
Outport 7
Stop Mark
Outport 4
Stop Mark
Outport 6
Stop Mark
Outport 7
Stop Mark
TIME 277
Outport 1
Stop Mark
Outport 2
Stop Mark
Outport 0
Stop Mark
Outport 5
Stop Mark
Outport 4
Stop Mark
Outport 7
Stop Mark
Outport 4
Stop Mark
Outport 7
Stop Mark
Outport 2
Stop Mark
TIME 278
Outport 1
Stop Mark
Outport 2
Stop Mark
Outport 0
Stop Mark
Outport 4
Stop Mark
Outport 7
Stop Mark
Outport 4
Stop Mark
Outport 0
Stop Mark
Outport 7
Stop Mark
Outport 2
Stop Mark
TIME 279
Outport 1
Stop Mark
Outport 2
Stop Mark
Outport 0
Stop Mark
Outport 6
Stop Mark
Outport 4
Stop Mark
Outport 7
Stop Mark
Outport 0
Stop Mark
Outport 2
Stop Mark
TIME 280
Outport 1
Stop Mark
Outport 2
Stop Mark
Outport 7
Stop Mark
Outport 6
Stop Mark
Outport 4
Stop Mark
Outport 7
Stop Mark
Outport 3
Stop Mark
Outport 5
Stop Mark
Outport 0
Stop Mark
Outport 2
Stop Mark
Outport 3
Stop Mark
TIME 281
New Flit 16
New Flit 16
New Flit 16
New Flit 16
New Flit 32
New Flit 32
New Flit 32
New Flit 32
Outport 1
Stop Mark
Outport 2
Stop Mark
Outport 7
Stop Mark
Outport 6
Stop Mark
Outport 7
Stop Mark
Outport 7
Stop Mark
Outport 3
Stop Mark
Outport 5
Stop Mark
Outport 0
Stop Mark
Outport 3
Stop Mark
TIME 282
Outport 1
Stop Mark
Outport 7
Stop Mark
Outport 6
Stop Mark
Outport 7
Stop Mark
Outport 7
Stop Mark
Outport 6
Stop Mark
Outport 3
Stop Mark
Outport 5
Stop Mark
Outport 3
Stop Mark
TIME 283
Outport 7
Stop Mark
Outport 7
Stop Mark
Outport 7
Stop Mark
Outport 6
Stop Mark
Outport 3
Stop Mark
Outport 5
Stop Mark
Outport 3
Stop Mark
TIME 284
Outport 7
Stop Mark
Outport 1
Stop Mark
Outport 6
Stop Mark
TIME 285
Outport 4
Stop Mark
Outport 7
Stop Mark
Outport 1
Stop Mark
Outport 4
Stop Mark
Outport 5
Stop Mark
Outport 6
Stop Mark
TIME 286
Outport 1
Stop Mark
Outport 4
Stop Mark
Outport 7
Stop Mark
Outport 1
Stop Mark
Outport 4
Stop Mark
Outport 5
Stop Mark
TIME 287
Outport 5
Stop Mark
Outport 1
Stop Mark
Outport 4
Stop Mark
Outport 7
Stop Mark
Outport 1
Stop Mark
Outport 4
Stop Mark
Outport 5
Stop Mark
Outport 1
Stop Mark
TIME 288
New Flit 46
New Flit 46
New Flit 46
New Flit 46
Outport 5
Stop Mark
Outport 1
Stop Mark
Outport 4
Stop Mark
Outport 7
Stop Mark
Outport 4
Stop Mark
Outport 5
Stop Mark
Outport 1
Stop Mark
TIME 289
Outport 5
Stop Mark
Outport 1
Stop Mark
Outport 1
Stop Mark
TIME 290
Outport 5
Stop Mark
Outport 2
Stop Mark
Outport 4
Stop Mark
Outport 5
Stop Mark
Outport 7
Stop Mark
Outport 1
Stop Mark
TIME 291
Outport 2
Stop Mark
Outport 4
Stop Mark
Outport 5
Stop Mark
Outport 7
Stop Mark
TIME 292
New Flit 35
New Flit 35
New Flit 35
New Flit 35
Outport 2
Stop Mark
Outport 4
Stop Mark
Outport 5
Stop Mark
Outport 7
Stop Mark
Outport 5
Stop Mark
TIME 293
Outport 2
Stop Mark
Outport 4
Stop Mark
Outport 5
Stop Mark
Outport 7
Stop Mark
Outport 5
Stop Mark
TIME 294
Outport 6
Stop Mark
Outport 5
Stop Mark
TIME 295
Outport 7
Stop Mark
Outport 4
Stop Mark
Outport 6
Stop Mark
Outport 7
Stop Mark
Outport 5
Stop Mark
TIME 296
New Flit 8
New Flit 8
New Flit 8
New Flit 8
Outport 7
Stop Mark
Outport 4
Stop Mark
Outport 6
Stop Mark
Outport 7
Stop Mark
Outport 7
Stop Mark
TIME 297
Outport 7
Stop Mark
Outport 4
Stop Mark
Outport 6
Stop Mark
Outport 7
Stop Mark
Outport 7
Stop Mark
Outport 7
Stop Mark
TIME 298
Outport 7
Stop Mark
Outport 4
Stop Mark
Outport 7
Stop Mark
Outport 7
Stop Mark
Outport 7
Stop Mark
TIME 299
Outport 7
Stop Mark
Outport 7
Stop Mark
Outport 2
Stop Mark
TIME 300
New Flit 38
New Flit 38
New Flit 38
New Flit 38
Outport 7
Stop Mark
Outport 3
Stop Mark
Outport 1
Stop Mark
Outport 6
Stop Mark
Outport 7
Stop Mark
Outport 2
Stop Mark
TIME 301
Outport 7
Stop Mark
Outport 3
Stop Mark
Outport 1
Stop Mark
Outport 7
Stop Mark
Outport 6
Stop Mark
Outport 2
Stop Mark
TIME 302
Outport 7
Stop Mark
Outport 3
Stop Mark
Outport 1
Stop Mark
Outport 7
Stop Mark
Outport 7
Stop Mark
Outport 6
Stop Mark
Outport 2
Stop Mark
TIME 303
Outport 7
Stop Mark
Outport 3
Stop Mark
Outport 1
Stop Mark
Outport 7
Stop Mark
Outport 7
Stop Mark
Outport 6
Stop Mark
TIME 304
Outport 7
Stop Mark
Outport 7
Stop Mark
Outport 5
Stop Mark
TIME 305
New Flit 18
New Flit 18
New Flit 18
New Flit 18
Outport 7
Stop Mark
Outport 0
Stop Mark
Outport 5
Stop Mark
TIME 306
Outport 1
Stop Mark
Outport 0
Stop Mark
Outport 5
Stop Mark
TIME 307
Outport 1
Stop Mark
Outport 1
Stop Mark
Outport 2
Stop Mark
Outport 0
Stop Mark
Outport 5
Stop Mark
TIME 308
Outport 1
Stop Mark
Outport 1
Stop Mark
Outport 2
Stop Mark
Outport 0
Stop Mark
TIME 309
Outport 1
Stop Mark
Outport 1
Stop Mark
Outport 2
Stop Mark
Outport 5
Stop Mark
Outport 5
Stop Mark
TIME 310
Outport 1
Stop Mark
Outport 2
Stop Mark
Outport 5
Stop Mark
Outport 5
Stop Mark
TIME 311
Outport 5
Stop Mark
Outport 5
Stop Mark
TIME 312
Outport 5
Stop Mark
Outport 5
Stop Mark
TIME 313
New Flit 62
New Flit 62
New Flit 62
New Flit 62
TIME 314
New Flit 17
New Flit 17
New Flit 17
New Flit 17
New Flit 42
New Flit 42
New Flit 42
New Flit 42
Outport 6
Stop Mark
Outport 6
Stop Mark
TIME 315
New Flit 9
New Flit 9
New Flit 9
New Flit 9
Outport 6
Stop Mark
Outport 6
Stop Mark
TIME 316
New Flit 7
New Flit 7
New Flit 7
New Flit 7
New Flit 8
New Flit 8
New Flit 8
New Flit 8
Outport 6
Stop Mark
Outport 6
Stop Mark
TIME 317
New Flit 27
New Flit 27
New Flit 27
New Flit 27
Outport 6
Stop Mark
Outport 6
Stop Mark
Outport 6
Stop Mark
TIME 318
Outport 4
Stop Mark
Outport 7
Stop Mark
Outport 6
Stop Mark
TIME 319
Outport 4
Stop Mark
Outport 4
Stop Mark
Outport 2
Stop Mark
Outport 7
Stop Mark
Outport 1
Stop Mark
Outport 6
Stop Mark
TIME 320
Outport 4
Stop Mark
Outport 5
Stop Mark
Outport 4
Stop Mark
Outport 2
Stop Mark
Outport 7
Stop Mark
Outport 1
Stop Mark
Outport 6
Stop Mark
TIME 321
Outport 4
Stop Mark
Outport 5
Stop Mark
Outport 4
Stop Mark
Outport 4
Stop Mark
Outport 2
Stop Mark
Outport 7
Stop Mark
Outport 1
Stop Mark
TIME 322
New Flit 58
New Flit 58
New Flit 58
New Flit 58
Outport 4
Stop Mark
Outport 5
Stop Mark
Outport 4
Stop Mark
Outport 2
Stop Mark
Outport 1
Stop Mark
TIME 323
New Flit 41
New Flit 41
New Flit 41
New Flit 41
Outport 4
Stop Mark
Outport 5
Stop Mark
Outport 4
Stop Mark
Outport 7
Stop Mark
TIME 324
New Flit 32
New Flit 32
New Flit 32
New Flit 32
Outport 4
Stop Mark
Outport 0
Stop Mark
Outport 4
Stop Mark
Outport 7
Stop Mark
Outport 5
Stop Mark
TIME 325
Outport 4
Stop Mark
Outport 0
Stop Mark
Outport 6
Stop Mark
Outport 6
Stop Mark
Outport 4
Stop Mark
Outport 7
Stop Mark
Outport 5
Stop Mark
TIME 326
Outport 4
Stop Mark
Outport 6
Stop Mark
Outport 6
Stop Mark
Outport 4
Stop Mark
Outport 7
Stop Mark
Outport 6
Stop Mark
Outport 5
Stop Mark
Outport 6
Stop Mark
TIME 327
New Flit 6
New Flit 6
New Flit 6
New Flit 6
Outport 0
Stop Mark
Outport 6
Stop Mark
Outport 4
Stop Mark
Outport 6
Stop Mark
Outport 4
Stop Mark
Outport 5
Stop Mark
Outport 6
Stop Mark
TIME 328
New Flit 28
New Flit 28
New Flit 28
New Flit 28
New Flit 59
New Flit 59
New Flit 59
New Flit 59
Outport 2
Stop Mark
Outport 6
Stop Mark
Outport 6
Stop Mark
Outport 4
Stop Mark
Outport 7
Stop Mark
Outport 4
Stop Mark
Outport 6
Stop Mark
TIME 329
New Flit 9
New Flit 9
New Flit 9
New Flit 9
New Flit 52
New Flit 52
New Flit 52
New Flit 52
Outport 0
Stop Mark
Outport 2
Stop Mark
Outport 6
Stop Mark
Outport 4
Stop Mark
Outport 7
Stop Mark
Outport 6
Stop Mark
TIME 330
New Flit 37
New Flit 37
New Flit 37
New Flit 37
Outport 2
Stop Mark
Outport 6
Stop Mark
Outport 6
Stop Mark
Outport 6
Stop Mark
Outport 7
Stop Mark
Outport 4
Stop Mark
Outport 7
Stop Mark
TIME 331
Outport 2
Stop Mark
Outport 5
Stop Mark
Outport 6
Stop Mark
Outport 6
Stop Mark
Outport 4
Stop Mark
Outport 1
Stop Mark
Outport 7
Stop Mark
TIME 332
New Flit 28
New Flit 28
New Flit 28
New Flit 28
Outport 5
Stop Mark
Outport 6
Stop Mark
Outport 5
Stop Mark
Outport 6
Stop Mark
Outport 7
Stop Mark
Outport 4
Stop Mark
Outport 4
Stop Mark
Outport 1
Stop Mark
Outport 7
Stop Mark
Outport 5
Stop Mark
TIME 333
Outport 4
Stop Mark
Outport 0
Stop Mark
Outport 5
Stop Mark
Outport 5
Stop Mark
Outport 6
Stop Mark
Outport 7
Stop Mark
Outport 4
Stop Mark
Outport 4
Stop Mark
Outport 1
Stop Mark
Outport 5
Stop Mark
Outport 6
Stop Mark
Outport 3
Stop Mark
TIME 334
Outport 4
Stop Mark
Outport 0
Stop Mark
Outport 5
Stop Mark
Outport 6
Stop Mark
Outport 5
Stop Mark
Outport 6
Stop Mark
Outport 1
Stop Mark
Outport 4
Stop Mark
Outport 4
Stop Mark
Outport 5
Stop Mark
Outport 5
Stop Mark
Outport 6
Stop Mark
Outport 3
Stop Mark
TIME 335
New Flit 45
New Flit 45
New Flit 45
New Flit 45
New Flit 57
New Flit 57
New Flit 57
New Flit 57
Outport 4
Stop Mark
Outport 5
Stop Mark
Outport 1
Stop Mark
Outport 4
Stop Mark
Outport 6
Stop Mark
Outport 0
Stop Mark
Outport 5
Stop Mark
Outport 5
Stop Mark
Outport 6
Stop Mark
Outport 3
Stop Mark
TIME 336
Outport 4
Stop Mark
Outport 0
Stop Mark
Outport 6
Stop Mark
Outport 5
Stop Mark
Outport 1
Stop Mark
Outport 4
Stop Mark
Outport 6
Stop Mark
Outport 0
Stop Mark
Outport 1
Stop Mark
Outport 5
Stop Mark
Outport 6
Stop Mark
Outport 3
Stop Mark
TIME 337
New Flit 46
New Flit 46
New Flit 46
New Flit 46
Outport 0
Stop Mark
Outport 6
Stop Mark
Outport 5
Stop Mark
Outport 5
Stop Mark
Outport 1
Stop Mark
Outport 4
Stop Mark
Outport 6
Stop Mark
Outport 0
Stop Mark
Outport 4
Stop Mark
Outport 5
Stop Mark
Outport 2
Stop Mark
TIME 338
Outport 6
Stop Mark
Outport 6
Stop Mark
Outport 5
Stop Mark
Outport 5
Stop Mark
Outport 4
Stop Mark
Outport 6
Stop Mark
Outport 0
Stop Mark
Outport 4
Stop Mark
Outport 2
Stop Mark
TIME 339
New Flit 24
New Flit 24
New Flit 24
New Flit 24
Outport 6
Stop Mark
Outport 6
Stop Mark
Outport 5
Stop Mark
Outport 5
Stop Mark
Outport 0
Stop Mark
Outport 4
Stop Mark
Outport 4
Stop Mark
Outport 5
Stop Mark
Outport 2
Stop Mark
Outport 6
Stop Mark
TIME 340
New Flit 45
New Flit 45
New Flit 45
New Flit 45
Outport 6
Stop Mark
Outport 5
Stop Mark
Outport 0
Stop Mark
Outport 4
Stop Mark
Outport 5
Stop Mark
Outport 2
Stop Mark
Outport 5
Stop Mark
Outport 6
Stop Mark
Outport 3
Stop Mark
TIME 341
Outport 6
Stop Mark
Outport 7
Stop Mark
Outport 6
Stop Mark
Outport 0
Stop Mark
Outport 4
Stop Mark
Outport 5
Stop Mark
Outport 5
Stop Mark
Outport 5
Stop Mark
Outport 6
Stop Mark
Outport 3
Stop Mark
TIME 342
Outport 6
Stop Mark
Outport 7
Stop Mark
Outport 6
Stop Mark
Outport 0
Stop Mark
Outport 4
Stop Mark
Outport 5
Stop Mark
Outport 1
Stop Mark
Outport 5
Stop Mark
Outport 5
Stop Mark
Outport 6
Stop Mark
Outport 3
Stop Mark
TIME 343
Outport 5
Stop Mark
Outport 6
Stop Mark
Outport 6
Stop Mark
Outport 7
Stop Mark
Outport 6
Stop Mark
Outport 4
Stop Mark
Outport 1
Stop Mark
Outport 5
Stop Mark
Outport 7
Stop Mark
Outport 5
Stop Mark
Outport 3
Stop Mark
TIME 344
Outport 5
Stop Mark
Outport 6
Stop Mark
Outport 6
Stop Mark
Outport 7
Stop Mark
Outport 6
Stop Mark
Outport 5
Stop Mark
Outport 4
Stop Mark
Outport 6
Stop Mark
Outport 5
Stop Mark
Outport 7
Stop Mark
TIME 345
New Flit 25
New Flit 25
New Flit 25
New Flit 25
Outport 5
Stop Mark
Outport 6
Stop Mark
Outport 6
Stop Mark
Outport 5
Stop Mark
Outport 6
Stop Mark
Outport 1
Stop Mark
TIME 346
Outport 2
Stop Mark
Outport 5
Stop Mark
Outport 6
Stop Mark
Outport 5
Stop Mark
Outport 5
Stop Mark
Outport 6
Stop Mark
Outport 7
Stop Mark
Outport 7
Stop Mark
TIME 347
New Flit 42
New Flit 42
New Flit 42
New Flit 42
Outport 2
Stop Mark
Outport 2
Stop Mark
Outport 0
Stop Mark
Outport 5
Stop Mark
Outport 5
Stop Mark
Outport 6
Stop Mark
Outport 1
Stop Mark
Outport 7
Stop Mark
TIME 348
Outport 2
Stop Mark
Outport 2
Stop Mark
Outport 1
Stop Mark
Outport 0
Stop Mark
Outport 0
Stop Mark
Outport 5
Stop Mark
Outport 6
Stop Mark
Outport 7
Stop Mark
Outport 7
Stop Mark
TIME 349
Outport 2
Stop Mark
Outport 2
Stop Mark
Outport 4
Stop Mark
Outport 1
Stop Mark
Outport 0
Stop Mark
Outport 6
Stop Mark
Outport 0
Stop Mark
Outport 5
Stop Mark
Outport 6
Stop Mark
Outport 2
Stop Mark
Outport 7
Stop Mark
TIME 350
New Flit 61
New Flit 61
New Flit 61
New Flit 61
Outport 2
Stop Mark
Outport 4
Stop Mark
Outport 1
Stop Mark
Outport 0
Stop Mark
Outport 6
Stop Mark
Outport 0
Stop Mark
Outport 6
Stop Mark
Outport 2
Stop Mark
Outport 2
Stop Mark
TIME 351
New Flit 53
New Flit 53
New Flit 53
New Flit 53
Outport 4
Stop Mark
Outport 6
Stop Mark
Outport 0
Stop Mark
Outport 5
Stop Mark
Outport 7
Stop Mark
Outport 3
Stop Mark
Outport 6
Stop Mark
Outport 2
Stop Mark
Outport 0
Stop Mark
Outport 2
Stop Mark
TIME 352
New Flit 17
New Flit 17
New Flit 17
New Flit 17
Outport 4
Stop Mark
Outport 1
Stop Mark
Outport 6
Stop Mark
Outport 5
Stop Mark
Outport 7
Stop Mark
Outport 3
Stop Mark
Outport 2
Stop Mark
Outport 0
Stop Mark
TIME 353
Outport 5
Stop Mark
Outport 7
Stop Mark
Outport 3
Stop Mark
Outport 2
Stop Mark
Outport 2
Stop Mark
TIME 354
New Flit 2
New Flit 2
New Flit 2
New Flit 2
New Flit 59
New Flit 59
New Flit 59
New Flit 59
Outport 4
Stop Mark
Outport 5
Stop Mark
Outport 7
Stop Mark
Outport 3
Stop Mark
Outport 1
Stop Mark
Outport 0
Stop Mark
Outport 4
Stop Mark
TIME 355
New Flit 58
New Flit 58
New Flit 58
New Flit 58
Outport 4
Stop Mark
Outport 1
Stop Mark
Outport 0
Stop Mark
Outport 4
Stop Mark
Outport 6
Stop Mark
TIME 356
New Flit 5
New Flit 5
New Flit 5
New Flit 5
Outport 4
Stop Mark
Outport 0
Stop Mark
Outport 4
Stop Mark
Outport 6
Stop Mark
Outport 1
Stop Mark
Outport 4
Stop Mark
Outport 6
Stop Mark
TIME 357
Outport 4
Stop Mark
Outport 0
Stop Mark
Outport 4
Stop Mark
Outport 6
Stop Mark
Outport 1
Stop Mark
Outport 4
Stop Mark
Outport 6
Stop Mark
TIME 358
New Flit 4
New Flit 4
New Flit 4
New Flit 4
New Flit 10
New Flit 10
New Flit 10
New Flit 10
New Flit 15
New Flit 15
New Flit 15
New Flit 15
New Flit 44
New Flit 44
New Flit 44
New Flit 44
Outport 4
Stop Mark
Outport 4
Stop Mark
Outport 0
Stop Mark
Outport 6
Stop Mark
Outport 5
Stop Mark
Outport 6
Stop Mark
TIME 359
New Flit 59
New Flit 59
New Flit 59
New Flit 59
Outport 4
Stop Mark
Outport 4
Stop Mark
Outport 0
Stop Mark
Outport 0
Stop Mark
Outport 6
Stop Mark
Outport 5
Stop Mark
Outport 6
Stop Mark
Outport 4
Stop Mark
TIME 360
Outport 4
Stop Mark
Outport 6
Stop Mark
Outport 0
Stop Mark
Outport 5
Stop Mark
Outport 6
Stop Mark
Outport 4
Stop Mark
TIME 361
New Flit 37
New Flit 37
New Flit 37
New Flit 37
New Flit 47
New Flit 47
New Flit 47
New Flit 47
Outport 4
Stop Mark
Outport 6
Stop Mark
Outport 6
Stop Mark
Outport 0
Stop Mark
Outport 0
Stop Mark
Outport 5
Stop Mark
Outport 6
Stop Mark
Outport 4
Stop Mark
TIME 362
New Flit 30
New Flit 30
New Flit 30
New Flit 30
Outport 4
Stop Mark
Outport 6
Stop Mark
Outport 7
Stop Mark
Outport 7
Stop Mark
Outport 6
Stop Mark
Outport 0
Stop Mark
Outport 3
Stop Mark
Outport 0
Stop Mark
Outport 7
Stop Mark
Outport 6
Stop Mark
Outport 4
Stop Mark
TIME 363
Outport 4
Stop Mark
Outport 1
Stop Mark
Outport 6
Stop Mark
Outport 7
Stop Mark
Outport 7
Stop Mark
Outport 6
Stop Mark
Outport 3
Stop Mark
Outport 0
Stop Mark
Outport 5
Stop Mark
Outport 7
Stop Mark
Outport 6
Stop Mark
TIME 364
Outport 4
Stop Mark
Outport 1
Stop Mark
Outport 7
Stop Mark
Outport 7
Stop Mark
Outport 6
Stop Mark
Outport 3
Stop Mark
Outport 0
Stop Mark
Outport 5
Stop Mark
Outport 7
Stop Mark
Outport 6
Stop Mark
TIME 365
New Flit 12
New Flit 12
New Flit 12
New Flit 12
Outport 4
Stop Mark
Outport 1
Stop Mark
Outport 7
Stop Mark
Outport 7
Stop Mark
Outport 6
Stop Mark
Outport 3
Stop Mark
Outport 4
Stop Mark
Outport 5
Stop Mark
Outport 5
Stop Mark
Outport 7
Stop Mark
Outport 6
Stop Mark
TIME 366
Outport 1
Stop Mark
Outport 6
Stop Mark
Outport 6
Stop Mark
Outport 7
Stop Mark
Outport 1
Stop Mark
Outport 4
Stop Mark
Outport 5
Stop Mark
Outport 5
Stop Mark
Outport 6
Stop Mark
Outport 7
Stop Mark
TIME 367
New Flit 3
New Flit 3
New Flit 3
New Flit 3
New Flit 58
New Flit 58
New Flit 58
New Flit 58
Outport 6
Stop Mark
Outport 6
Stop Mark
Outport 6
Stop Mark
Outport 7
Stop Mark
Outport 0
Stop Mark
Outport 1
Stop Mark
Outport 4
Stop Mark
Outport 5
Stop Mark
Outport 7
Stop Mark
TIME 368
New Flit 23
New Flit 23
New Flit 23
New Flit 23
Outport 6
Stop Mark
Outport 6
Stop Mark
Outport 6
Stop Mark
Outport 7
Stop Mark
Outport 0
Stop Mark
Outport 1
Stop Mark
Outport 4
Stop Mark
Outport 5
Stop Mark
Outport 7
Stop Mark
TIME 369
Outport 3
Stop Mark
Outport 5
Stop Mark
Outport 6
Stop Mark
Outport 6
Stop Mark
Outport 7
Stop Mark
Outport 0
Stop Mark
Outport 1
Stop Mark
Outport 7
Stop Mark
TIME 370
New Flit 25
New Flit 25
New Flit 25
New Flit 25
New Flit 27
New Flit 27
New Flit 27
New Flit 27
Outport 3
Stop Mark
Outport 5
Stop Mark
Outport 6
Stop Mark
Outport 7
Stop Mark
Outport 0
Stop Mark
Outport 0
Stop Mark
Outport 5
Stop Mark
Outport 7
Stop Mark
Outport 1
Stop Mark
TIME 371
New Flit 8
New Flit 8
New Flit 8
New Flit 8
New Flit 11
New Flit 11
New Flit 11
New Flit 11
Outport 3
Stop Mark
Outport 5
Stop Mark
Outport 6
Stop Mark
Outport 1
Stop Mark
Outport 7
Stop Mark
Outport 0
Stop Mark
Outport 5
Stop Mark
Outport 1
Stop Mark
Outport 2
Stop Mark
Outport 7
Stop Mark
Outport 7
Stop Mark
Outport 1
Stop Mark
TIME 372
Outport 3
Stop Mark
Outport 5
Stop Mark
Outport 6
Stop Mark
Outport 1
Stop Mark
Outport 7
Stop Mark
Outport 6
Stop Mark
Outport 4
Stop Mark
Outport 0
Stop Mark
Outport 5
Stop Mark
Outport 1
Stop Mark
Outport 2
Stop Mark
Outport 7
Stop Mark
Outport 7
Stop Mark
Outport 1
Stop Mark
TIME 373
New Flit 54
New Flit 54
New Flit 54
New Flit 54
Outport 5
Stop Mark
Outport 6
Stop Mark
Outport 1
Stop Mark
Outport 7
Stop Mark
Outport 6
Stop Mark
Outport 4
Stop Mark
Outport 0
Stop Mark
Outport 5
Stop Mark
Outport 1
Stop Mark
Outport 2
Stop Mark
Outport 7
Stop Mark
Outport 7
Stop Mark
Outport 1
Stop Mark
TIME 374
New Flit 14
New Flit 14
New Flit 14
New Flit 14
Outport 6
Stop Mark
Outport 5
Stop Mark
Outport 6
Stop Mark
Outport 1
Stop Mark
Outport 3
Stop Mark
Outport 4
Stop Mark
Outport 2
Stop Mark
Outport 6
Stop Mark
Outport 4
Stop Mark
Outport 1
Stop Mark
Outport 2
Stop Mark
Outport 7
Stop Mark
TIME 375
Outport 2
Stop Mark
Outport 6
Stop Mark
Outport 7
Stop Mark
Outport 5
Stop Mark
Outport 7
Stop Mark
Outport 3
Stop Mark
Outport 4
Stop Mark
Outport 2
Stop Mark
Outport 1
Stop Mark
Outport 4
Stop Mark
Outport 5
Stop Mark
TIME 376
New Flit 2
New Flit 2
New Flit 2
New Flit 2
New Flit 52
New Flit 52
New Flit 52
New Flit 52
Outport 2
Stop Mark
Outport 5
Stop Mark
Outport 6
Stop Mark
Outport 7
Stop Mark
Outport 5
Stop Mark
Outport 7
Stop Mark
Outport 3
Stop Mark
Outport 4
Stop Mark
Outport 6
Stop Mark
Outport 1
Stop Mark
Outport 5
Stop Mark
Outport 7
Stop Mark
TIME 377
New Flit 6
New Flit 6
New Flit 6
New Flit 6
Outport 2
Stop Mark
Outport 5
Stop Mark
Outport 7
Stop Mark
Outport 7
Stop Mark
Outport 3
Stop Mark
Outport 4
Stop Mark
Outport 2
Stop Mark
Outport 1
Stop Mark
Outport 5
Stop Mark
Outport 7
Stop Mark
Outport 6
Stop Mark
Outport 7
Stop Mark
TIME 378
New Flit 3
New Flit 3
New Flit 3
New Flit 3
New Flit 14
New Flit 14
New Flit 14
New Flit 14
New Flit 63
New Flit 63
New Flit 63
New Flit 63
Outport 2
Stop Mark
Outport 6
Stop Mark
Outport 7
Stop Mark
Outport 7
Stop Mark
Outport 5
Stop Mark
Outport 2
Stop Mark
Outport 1
Stop Mark
Outport 5
Stop Mark
Outport 7
Stop Mark
Outport 6
Stop Mark
Outport 7
Stop Mark
TIME 379
New Flit 0
New Flit 0
New Flit 0
New Flit 0
New Flit 4
New Flit 4
New Flit 4
New Flit 4
New Flit 59
New Flit 59
New Flit 59
New Flit 59
Outport 5
Stop Mark
Outport 5
Stop Mark
Outport 2
Stop Mark
Outport 4
Stop Mark
Outport 7
Stop Mark
Outport 6
Stop Mark
Outport 1
Stop Mark
Outport 7
Stop Mark
TIME 380
Outport 5
Stop Mark
Outport 4
Stop Mark
Outport 5
Stop Mark
Outport 2
Stop Mark
Outport 4
Stop Mark
Outport 3
Stop Mark
Outport 6
Stop Mark
Outport 4
Stop Mark
Outport 1
Stop Mark
Outport 7
Stop Mark
TIME 381
Outport 4
Stop Mark
Outport 4
Stop Mark
Outport 5
Stop Mark
Outport 2
Stop Mark
Outport 7
Stop Mark
Outport 4
Stop Mark
Outport 3
Stop Mark
Outport 4
Stop Mark
Outport 1
Stop Mark
TIME 382
New Flit 12
New Flit 12
New Flit 12
New Flit 12
New Flit 54
New Flit 54
New Flit 54
New Flit 54
Outport 4
Stop Mark
Outport 7
Stop Mark
Outport 1
Stop Mark
Outport 4
Stop Mark
Outport 5
Stop Mark
Outport 6
Stop Mark
Outport 2
Stop Mark
Outport 7
Stop Mark
Outport 4
Stop Mark
Outport 3
Stop Mark
Outport 1
Stop Mark
Outport 2
Stop Mark
Outport 4
Stop Mark
Outport 1
Stop Mark
Outport 6
Stop Mark
TIME 383
Outport 5
Stop Mark
Outport 4
Stop Mark
Outport 7
Stop Mark
Outport 1
Stop Mark
Outport 2
Stop Mark
Outport 5
Stop Mark
Outport 4
Stop Mark
Outport 5
Stop Mark
Outport 6
Stop Mark
Outport 7
Stop Mark
Outport 3
Stop Mark
Outport 6
Stop Mark
Outport 1
Stop Mark
Outport 6
Stop Mark
Outport 2
Stop Mark
Outport 4
Stop Mark
Outport 6
Stop Mark
TIME 384
Outport 5
Stop Mark
Outport 7
Stop Mark
Outport 1
Stop Mark
Outport 2
Stop Mark
Outport 5
Stop Mark
Outport 4
Stop Mark
Outport 5
Stop Mark
Outport 6
Stop Mark
Outport 7
Stop Mark
Outport 6
Stop Mark
Outport 6
Stop Mark
Outport 1
Stop Mark
Outport 6
Stop Mark
Outport 2
Stop Mark
Outport 6
Stop Mark
TIME 385
Outport 5
Stop Mark
Outport 7
Stop Mark
Outport 1
Stop Mark
Outport 2
Stop Mark
Outport 5
Stop Mark
Outport 6
Stop Mark
Outport 5
Stop Mark
Outport 6
Stop Mark
Outport 6
Stop Mark
Outport 6
Stop Mark
Outport 1
Stop Mark
Outport 6
Stop Mark
Outport 2
Stop Mark
Outport 4
Stop Mark
Outport 6
Stop Mark
TIME 386
Outport 5
Stop Mark
Outport 2
Stop Mark
Outport 2
Stop Mark
Outport 5
Stop Mark
Outport 6
Stop Mark
Outport 7
Stop Mark
Outport 6
Stop Mark
Outport 6
Stop Mark
Outport 6
Stop Mark
Outport 4
Stop Mark
Outport 6
Stop Mark
TIME 387
Outport 2
Stop Mark
Outport 6
Stop Mark
Outport 7
Stop Mark
Outport 2
Stop Mark
Outport 6
Stop Mark
Outport 4
Stop Mark
Outport 6
Stop Mark
TIME 388
Outport 2
Stop Mark
Outport 6
Stop Mark
Outport 6
Stop Mark
Outport 7
Stop Mark
Outport 2
Stop Mark
Outport 2
Stop Mark
Outport 2
Stop Mark
Outport 4
Stop Mark
Outport 6
Stop Mark
TIME 389
New Flit 40
New Flit 40
New Flit 40
New Flit 40
New Flit 46
New Flit 46
New Flit 46
New Flit 46
Outport 2
Stop Mark
Outport 6
Stop Mark
Outport 6
Stop Mark
Outport 7
Stop Mark
Outport 4
Stop Mark
Outport 2
Stop Mark
Outport 1
Stop Mark
Outport 2
Stop Mark
Outport 2
Stop Mark
Outport 5
Stop Mark
Outport 6
Stop Mark
TIME 390
New Flit 27
New Flit 27
New Flit 27
New Flit 27
Outport 6
Stop Mark
Outport 6
Stop Mark
Outport 4
Stop Mark
Outport 6
Stop Mark
Outport 2
Stop Mark
Outport 6
Stop Mark
Outport 1
Stop Mark
Outport 2
Stop Mark
Outport 2
Stop Mark
Outport 5
Stop Mark
Outport 4
Stop Mark
TIME 391
New Flit 10
New Flit 10
New Flit 10
New Flit 10
New Flit 49
New Flit 49
New Flit 49
New Flit 49
New Flit 54
New Flit 54
New Flit 54
New Flit 54
Outport 6
Stop Mark
Outport 6
Stop Mark
Outport 4
Stop Mark
Outport 6
Stop Mark
Outport 6
Stop Mark
Outport 1
Stop Mark
Outport 2
Stop Mark
Outport 2
Stop Mark
Outport 5
Stop Mark
Outport 4
Stop Mark
TIME 392
New Flit 36
New Flit 36
New Flit 36
New Flit 36
Outport 6
Stop Mark
Outport 4
Stop Mark
Outport 6
Stop Mark
Outport 7
Stop Mark
Outport 6
Stop Mark
Outport 1
Stop Mark
Outport 5
Stop Mark
Outport 4
Stop Mark
TIME 393
Outport 5
Stop Mark
Outport 0
Stop Mark
Outport 6
Stop Mark
Outport 7
Stop Mark
Outport 4
Stop Mark
Outport 6
Stop Mark
Outport 7
Stop Mark
Outport 7
Stop Mark
Outport 4
Stop Mark
TIME 394
Outport 5
Stop Mark
Outport 0
Stop Mark
Outport 4
Stop Mark
Outport 6
Stop Mark
Outport 7
Stop Mark
Outport 4
Stop Mark
Outport 7
Stop Mark
Outport 7
Stop Mark
Outport 7
Stop Mark
TIME 395
New Flit 9
New Flit 9
New Flit 9
New Flit 9
Outport 5
Stop Mark
Outport 6
Stop Mark
Outport 0
Stop Mark
Outport 4
Stop Mark
Outport 6
Stop Mark
Outport 7
Stop Mark
Outport 4
Stop Mark
Outport 0
Stop Mark
Outport 7
Stop Mark
Outport 1
Stop Mark
Outport 6
Stop Mark
Outport 7
Stop Mark
Outport 7
Stop Mark
Outport 6
Stop Mark
TIME 396
New Flit 28
New Flit 28
New Flit 28
New Flit 28
New Flit 31
New Flit 31
New Flit 31
New Flit 31
Outport 5
Stop Mark
Outport 6
Stop Mark
Outport 0
Stop Mark
Outport 4
Stop Mark
Outport 6
Stop Mark
Outport 4
Stop Mark
Outport 0
Stop Mark
Outport 5
Stop Mark
Outport 6
Stop Mark
Outport 7
Stop Mark
Outport 1
Stop Mark
Outport 6
Stop Mark
Outport 7
Stop Mark
Outport 7
Stop Mark
Outport 6
Stop Mark
TIME 397
Outport 6
Stop Mark
Outport 1
Stop Mark
Outport 4
Stop Mark
Outport 6
Stop Mark
Outport 0
Stop Mark
Outport 5
Stop Mark
Outport 6
Stop Mark
Outport 6
Stop Mark
Outport 1
Stop Mark
Outport 6
Stop Mark
Outport 7
Stop Mark
Outport 6
Stop Mark
TIME 398
New Flit 39
New Flit 39
New Flit 39
New Flit 39
New Flit 43
New Flit 43
New Flit 43
New Flit 43
Outport 6
Stop Mark
Outport 1
Stop Mark
Outport 0
Stop Mark
Outport 4
Stop Mark
Outport 7
Stop Mark
Outport 0
Stop Mark
Outport 5
Stop Mark
Outport 6
Stop Mark
Outport 1
Stop Mark
Outport 6
Stop Mark
Outport 6
Stop Mark
TIME 399
New Flit 46
New Flit 46
New Flit 46
New Flit 46
New Flit 62
New Flit 62
New Flit 62
New Flit 62
Outport 7
Stop Mark
Outport 1
Stop Mark
Outport 4
Stop Mark
Outport 0
Stop Mark
Outport 1
Stop Mark
Outport 4
Stop Mark
Outport 7
Stop Mark
Outport 5
Stop Mark
Outport 6
Stop Mark
Outport 6
Stop Mark
TIME 400
Outport 7
Stop Mark
Outport 1
Stop Mark
Outport 6
Stop Mark
Outport 4
Stop Mark
Outport 0
Stop Mark
Outport 3
Stop Mark
Outport 1
Stop Mark
Outport 6
Stop Mark
Outport 4
Stop Mark
Outport 7
Stop Mark
Outport 0
Stop Mark
TIME 401
New Flit 30
New Flit 30
New Flit 30
New Flit 30
Outport 7
Stop Mark
Outport 6
Stop Mark
Outport 4
Stop Mark
Outport 0
Stop Mark
Outport 3
Stop Mark
Outport 1
Stop Mark
Outport 6
Stop Mark
Outport 4
Stop Mark
Outport 7
Stop Mark
Outport 6
Stop Mark
Outport 0
Stop Mark
TIME 402
New Flit 60
New Flit 60
New Flit 60
New Flit 60
Outport 7
Stop Mark
Outport 6
Stop Mark
Outport 4
Stop Mark
Outport 0
Stop Mark
Outport 3
Stop Mark
Outport 1
Stop Mark
Outport 6
Stop Mark
Outport 0
Stop Mark
Outport 7
Stop Mark
Outport 6
Stop Mark
Outport 5
Stop Mark
Outport 7
Stop Mark
Outport 3
Stop Mark
Outport 7
Stop Mark
Outport 0
Stop Mark
TIME 403
New Flit 33
New Flit 33
New Flit 33
New Flit 33
Outport 0
Stop Mark
Outport 6
Stop Mark
Outport 4
Stop Mark
Outport 0
Stop Mark
Outport 3
Stop Mark
Outport 6
Stop Mark
Outport 0
Stop Mark
Outport 7
Stop Mark
Outport 7
Stop Mark
Outport 5
Stop Mark
[...]
Outport 3
Stop Mark
Outport 6
Stop Mark
Outport 5
Stop Mark
TIME 5913
Outport 0
Stop Mark
Outport 6
Stop Mark
Outport 7
Stop Mark
Outport 7
Stop Mark
Outport 0
Stop Mark
Outport 3
Stop Mark
Outport 6
Stop Mark
Outport 5
Stop Mark
TIME 5914
Outport 1
Stop Mark
Outport 4
Stop Mark
Outport 7
Stop Mark
Outport 7
Stop Mark
Outport 0
Stop Mark
Outport 6
Stop Mark
Outport 5
Stop Mark
TIME 5915
Outport 1
Stop Mark
Outport 4
Stop Mark
Outport 7
Stop Mark
Outport 1
Stop Mark
Outport 7
Stop Mark
Outport 0
Stop Mark
Outport 6
Stop Mark
Outport 7
Stop Mark
Outport 5
Stop Mark
TIME 5916
New Flit 39
New Flit 39
New Flit 39
New Flit 39
Outport 1
Stop Mark
Outport 4
Stop Mark
Outport 1
Stop Mark
Outport 1
Stop Mark
Outport 7
Stop Mark
Outport 0
Stop Mark
Outport 6
Stop Mark
Outport 7
Stop Mark
TIME 5917
New Flit 4
New Flit 4
New Flit 4
New Flit 4
Outport 1
Stop Mark
Outport 0
Stop Mark
Outport 4
Stop Mark
Outport 1
Stop Mark
Outport 1
Stop Mark
Outport 6
Stop Mark
Outport 7
Stop Mark
TIME 5918
New Flit 5
New Flit 5
New Flit 5
New Flit 5
New Flit 22
New Flit 22
New Flit 22
New Flit 22
Outport 0
Stop Mark
Outport 2
Stop Mark
Outport 1
Stop Mark
Outport 1
Stop Mark
Outport 6
Stop Mark
Outport 7
Stop Mark
TIME 5919
Outport 0
Stop Mark
Outport 2
Stop Mark
Outport 1
Stop Mark
Outport 6
Stop Mark
Outport 4
Stop Mark
Outport 7
Stop Mark
TIME 5920
Outport 0
Stop Mark
Outport 2
Stop Mark
Outport 3
Stop Mark
Outport 5
Stop Mark
Outport 4
Stop Mark
Outport 7
Stop Mark
TIME 5921
New Flit 31
New Flit 31
New Flit 31
New Flit 31
Outport 5
Stop Mark
Outport 2
Stop Mark
Outport 3
Stop Mark
Outport 2
Stop Mark
Outport 5
Stop Mark
Outport 4
Stop Mark
Outport 7
Stop Mark
TIME 5922
Outport 5
Stop Mark
Outport 5
Stop Mark
Outport 3
Stop Mark
Outport 7
Stop Mark
Outport 2
Stop Mark
Outport 5
Stop Mark
Outport 4
Stop Mark
Outport 7
Stop Mark
TIME 5923
Outport 5
Stop Mark
Outport 5
Stop Mark
Outport 7
Stop Mark
Outport 2
Stop Mark
Outport 5
Stop Mark
Outport 7
Stop Mark
TIME 5924
Outport 5
Stop Mark
Outport 5
Stop Mark
Outport 3
Stop Mark
Outport 2
Stop Mark
Outport 7
Stop Mark
Outport 1
Stop Mark
TIME 5925
Outport 5
Stop Mark
Outport 5
Stop Mark
Outport 3
Stop Mark
Outport 7
Stop Mark
Outport 7
Stop Mark
Outport 1
Stop Mark
TIME 5926
New Flit 19
New Flit 19
New Flit 19
New Flit 19
Outport 6
Stop Mark
Outport 5
Stop Mark
Outport 5
Stop Mark
Outport 3
Stop Mark
Outport 7
Stop Mark
Outport 7
Stop Mark
Outport 1
Stop Mark
TIME 5927
New Flit 57
New Flit 57
New Flit 57
New Flit 57
Outport 6
Stop Mark
Outport 5
Stop Mark
Outport 0
Stop Mark
Outport 2
Stop Mark
Outport 5
Stop Mark
Outport 3
Stop Mark
Outport 1
Stop Mark
TIME 5928
Outport 6
Stop Mark
Outport 5
Stop Mark
Outport 0
Stop Mark
Outport 2
Stop Mark
Outport 5
Stop Mark
Outport 3
Stop Mark
Outport 7
Stop Mark
TIME 5929
Outport 6
Stop Mark
Outport 0
Stop Mark
Outport 2
Stop Mark
Outport 5
Stop Mark
Outport 7
Stop Mark
TIME 5930
New Flit 45
New Flit 45
New Flit 45
New Flit 45
Outport 6
Stop Mark
Outport 4
Stop Mark
Outport 0
Stop Mark
Outport 2
Stop Mark
Outport 6
Stop Mark
Outport 7
Stop Mark
TIME 5931
New Flit 34
New Flit 34
New Flit 34
New Flit 34
Outport 6
Stop Mark
Outport 4
Stop Mark
Outport 6
Stop Mark
Outport 6
Stop Mark
Outport 7
Stop Mark
Outport 6
Stop Mark
TIME 5932
Outport 6
Stop Mark
Outport 2
Stop Mark
Outport 4
Stop Mark
Outport 6
Stop Mark
Outport 6
Stop Mark
Outport 6
Stop Mark
TIME 5933
New Flit 10
New Flit 10
New Flit 10
New Flit 10
Outport 6
Stop Mark
Outport 2
Stop Mark
Outport 4
Stop Mark
Outport 0
Stop Mark
Outport 6
Stop Mark
Outport 6
Stop Mark
TIME 5934
Outport 6
Stop Mark
Outport 0
Stop Mark
Outport 4
Stop Mark
Outport 6
Stop Mark
TIME 5935
Outport 2
Stop Mark
Outport 0
Stop Mark
Outport 4
Stop Mark
Outport 7
Stop Mark
Outport 1
Stop Mark
Outport 4
Stop Mark
TIME 5936
New Flit 17
New Flit 17
New Flit 17
New Flit 17
Outport 6
Stop Mark
Outport 0
Stop Mark
Outport 4
Stop Mark
Outport 0
Stop Mark
Outport 7
Stop Mark
Outport 1
Stop Mark
Outport 4
Stop Mark
TIME 5937
New Flit 59
New Flit 59
New Flit 59
New Flit 59
Outport 5
Stop Mark
Outport 2
Stop Mark
Outport 4
Stop Mark
Outport 0
Stop Mark
Outport 7
Stop Mark
Outport 1
Stop Mark
Outport 4
Stop Mark
TIME 5938
Outport 5
Stop Mark
Outport 4
Stop Mark
Outport 0
Stop Mark
Outport 7
Stop Mark
Outport 1
Stop Mark
Outport 4
Stop Mark
TIME 5939
Outport 5
Stop Mark
Outport 0
Stop Mark
Outport 4
Stop Mark
TIME 5940
New Flit 5
New Flit 5
New Flit 5
New Flit 5
Outport 5
Stop Mark
Outport 4
Stop Mark
Outport 7
Stop Mark
Outport 4
Stop Mark
Outport 0
Stop Mark
Outport 0
Stop Mark
Outport 4
Stop Mark
TIME 5941
Outport 4
Stop Mark
Outport 7
Stop Mark
Outport 4
Stop Mark
Outport 0
Stop Mark
Outport 7
Stop Mark
Outport 4
Stop Mark
TIME 5942
Outport 2
Stop Mark
Outport 4
Stop Mark
Outport 7
Stop Mark
Outport 4
Stop Mark
Outport 0
Stop Mark
Outport 7
Stop Mark
TIME 5943
Outport 2
Stop Mark
Outport 4
Stop Mark
Outport 7
Stop Mark
Outport 4
Stop Mark
Outport 7
Stop Mark
Outport 4
Stop Mark
TIME 5944
Outport 2
Stop Mark
Outport 4
Stop Mark
Outport 7
Stop Mark
Outport 4
Stop Mark
TIME 5945
Outport 2
Stop Mark
Outport 0
Stop Mark
Outport 4
Stop Mark
Outport 4
Stop Mark
Outport 4
Stop Mark
TIME 5946
New Flit 36
New Flit 36
New Flit 36
New Flit 36
Outport 0
Stop Mark
Outport 4
Stop Mark
Outport 4
Stop Mark
Outport 0
Stop Mark
Outport 4
Stop Mark
TIME 5947
Outport 0
Stop Mark
Outport 4
Stop Mark
Outport 4
Stop Mark
Outport 0
Stop Mark
Outport 2
Stop Mark
TIME 5948
Outport 0
Stop Mark
Outport 4
Stop Mark
Outport 0
Stop Mark
Outport 2
Stop Mark
TIME 5949
Outport 4
Stop Mark
Outport 0
Stop Mark
Outport 2
Stop Mark
TIME 5950
Outport 4
Stop Mark
Outport 7
Stop Mark
Outport 7
Stop Mark
Outport 4
Stop Mark
Outport 2
Stop Mark
TIME 5951
New Flit 37
New Flit 37
New Flit 37
New Flit 37
Outport 4
Stop Mark
Outport 7
Stop Mark
Outport 7
Stop Mark
Outport 4
Stop Mark
TIME 5952
New Flit 20
New Flit 20
New Flit 20
New Flit 20
New Flit 58
New Flit 58
New Flit 58
New Flit 58
Outport 4
Stop Mark
Outport 7
Stop Mark
Outport 7
Stop Mark
Outport 4
Stop Mark
TIME 5953
Outport 7
Stop Mark
Outport 7
Stop Mark
Outport 4
Stop Mark
TIME 5954
New Flit 5
New Flit 5
New Flit 5
New Flit 5
TIME 5955
Outport 3
Stop Mark
Outport 0
Stop Mark
Outport 5
Stop Mark
Outport 6
Stop Mark
TIME 5956
New Flit 59
New Flit 59
New Flit 59
New Flit 59
Outport 3
Stop Mark
Outport 0
Stop Mark
Outport 5
Stop Mark
Outport 5
Stop Mark
Outport 6
Stop Mark
Outport 5
Stop Mark
TIME 5957
New Flit 23
New Flit 23
New Flit 23
New Flit 23
Outport 3
Stop Mark
Outport 0
Stop Mark
Outport 5
Stop Mark
Outport 5
Stop Mark
Outport 6
Stop Mark
Outport 5
Stop Mark
TIME 5958
Outport 3
Stop Mark
Outport 4
Stop Mark
Outport 0
Stop Mark
Outport 5
Stop Mark
Outport 5
Stop Mark
Outport 6
Stop Mark
Outport 5
Stop Mark
TIME 5959
Outport 4
Stop Mark
Outport 5
Stop Mark
Outport 6
Stop Mark
Outport 5
Stop Mark
TIME 5960
Outport 4
Stop Mark
Outport 5
Stop Mark
Outport 6
Stop Mark
Outport 6
Stop Mark
Outport 1
Stop Mark
TIME 5961
Outport 4
Stop Mark
Outport 5
Stop Mark
Outport 5
Stop Mark
Outport 5
Stop Mark
Outport 6
Stop Mark
Outport 2
Stop Mark
Outport 6
Stop Mark
Outport 1
Stop Mark
Outport 3
Stop Mark
TIME 5962
New Flit 60
New Flit 60
New Flit 60
New Flit 60
Outport 5
Stop Mark
Outport 5
Stop Mark
Outport 5
Stop Mark
Outport 6
Stop Mark
Outport 2
Stop Mark
Outport 6
Stop Mark
Outport 3
Stop Mark
TIME 5963
New Flit 26
New Flit 26
New Flit 26
New Flit 26
New Flit 40
New Flit 40
New Flit 40
New Flit 40
New Flit 41
New Flit 41
New Flit 41
New Flit 41
New Flit 49
New Flit 49
New Flit 49
New Flit 49
Outport 3
Stop Mark
Outport 5
Stop Mark
Outport 5
Stop Mark
Outport 5
Stop Mark
Outport 2
Stop Mark
Outport 6
Stop Mark
Outport 1
Stop Mark
TIME 5964
New Flit 28
New Flit 28
New Flit 28
New Flit 28
Outport 3
Stop Mark
Outport 5
Stop Mark
Outport 5
Stop Mark
Outport 2
Stop Mark
Outport 3
Stop Mark
TIME 5965
Outport 3
Stop Mark
Outport 7
Stop Mark
Outport 1
Stop Mark
TIME 5966
Outport 3
Stop Mark
Outport 3
Stop Mark
Outport 5
Stop Mark
Outport 7
Stop Mark
Outport 6
Stop Mark
Outport 3
Stop Mark
TIME 5967
New Flit 7
New Flit 7
New Flit 7
New Flit 7
New Flit 45
New Flit 45
New Flit 45
New Flit 45
New Flit 51
New Flit 51
New Flit 51
New Flit 51
Outport 3
Stop Mark
Outport 6
Stop Mark
Outport 5
Stop Mark
Outport 4
Stop Mark
Outport 7
Stop Mark
Outport 7
Stop Mark
Outport 6
Stop Mark
Outport 4
Stop Mark
TIME 5968
Outport 3
Stop Mark
Outport 6
Stop Mark
Outport 5
Stop Mark
Outport 4
Stop Mark
Outport 7
Stop Mark
Outport 7
Stop Mark
Outport 6
Stop Mark
Outport 4
Stop Mark
TIME 5969
Outport 3
Stop Mark
Outport 6
Stop Mark
Outport 5
Stop Mark
Outport 4
Stop Mark
Outport 7
Stop Mark
Outport 6
Stop Mark
Outport 4
Stop Mark
TIME 5970
Outport 1
Stop Mark
Outport 6
Stop Mark
Outport 5
Stop Mark
Outport 4
Stop Mark
Outport 7
Stop Mark
Outport 4
Stop Mark
TIME 5971
New Flit 0
New Flit 0
New Flit 0
New Flit 0
New Flit 11
New Flit 11
New Flit 11
New Flit 11
Outport 7
Stop Mark
Outport 1
Stop Mark
Outport 6
Stop Mark
Outport 5
Stop Mark
Outport 4
Stop Mark
Outport 5
Stop Mark
Outport 5
Stop Mark
TIME 5972
New Flit 50
New Flit 50
New Flit 50
New Flit 50
Outport 7
Stop Mark
Outport 1
Stop Mark
Outport 6
Stop Mark
Outport 5
Stop Mark
Outport 2
Stop Mark
Outport 4
Stop Mark
Outport 6
Stop Mark
Outport 5
Stop Mark
Outport 5
Stop Mark
TIME 5973
New Flit 1
New Flit 1
New Flit 1
New Flit 1
Outport 7
Stop Mark
Outport 1
Stop Mark
Outport 6
Stop Mark
Outport 5
Stop Mark
Outport 2
Stop Mark
Outport 4
Stop Mark
Outport 4
Stop Mark
Outport 6
Stop Mark
Outport 5
Stop Mark
Outport 7
Stop Mark
Outport 5
Stop Mark
TIME 5974
Outport 7
Stop Mark
Outport 6
Stop Mark
Outport 7
Stop Mark
Outport 2
Stop Mark
Outport 4
Stop Mark
Outport 4
Stop Mark
Outport 6
Stop Mark
Outport 5
Stop Mark
Outport 7
Stop Mark
Outport 5
Stop Mark
TIME 5975
Outport 7
Stop Mark
Outport 5
Stop Mark
Outport 6
Stop Mark
Outport 7
Stop Mark
Outport 2
Stop Mark
Outport 6
Stop Mark
Outport 7
Stop Mark
TIME 5976
New Flit 34
New Flit 34
New Flit 34
New Flit 34
Outport 7
Stop Mark
Outport 5
Stop Mark
Outport 6
Stop Mark
Outport 7
Stop Mark
Outport 2
Stop Mark
Outport 4
Stop Mark
Outport 6
Stop Mark
Outport 7
Stop Mark
Outport 5
Stop Mark
TIME 5977
New Flit 57
New Flit 57
New Flit 57
New Flit 57
Outport 2
Stop Mark
Outport 7
Stop Mark
Outport 5
Stop Mark
Outport 6
Stop Mark
Outport 7
Stop Mark
Outport 2
Stop Mark
Outport 6
Stop Mark
Outport 7
Stop Mark
Outport 1
Stop Mark
Outport 5
Stop Mark
TIME 5978
Outport 2
Stop Mark
Outport 7
Stop Mark
Outport 5
Stop Mark
Outport 6
Stop Mark
Outport 6
Stop Mark
Outport 3
Stop Mark
Outport 2
Stop Mark
Outport 3
Stop Mark
Outport 4
Stop Mark
Outport 6
Stop Mark
Outport 7
Stop Mark
Outport 7
Stop Mark
Outport 1
Stop Mark
Outport 5
Stop Mark
TIME 5979
Outport 2
Stop Mark
Outport 6
Stop Mark
Outport 1
Stop Mark
Outport 3
Stop Mark
Outport 2
Stop Mark
Outport 3
Stop Mark
Outport 6
Stop Mark
Outport 7
Stop Mark
Outport 7
Stop Mark
Outport 1
Stop Mark
Outport 5
Stop Mark
TIME 5980
Outport 2
Stop Mark
Outport 6
Stop Mark
Outport 6
Stop Mark
Outport 1
Stop Mark
Outport 3
Stop Mark
Outport 6
Stop Mark
Outport 7
Stop Mark
Outport 7
Stop Mark
Outport 7
Stop Mark
Outport 1
Stop Mark
TIME 5981
Outport 6
Stop Mark
Outport 6
Stop Mark
Outport 1
Stop Mark
Outport 2
Stop Mark
Outport 3
Stop Mark
Outport 3
Stop Mark
Outport 6
Stop Mark
Outport 7
Stop Mark
Outport 6
Stop Mark
Outport 7
Stop Mark
Outport 1
Stop Mark
TIME 5982
Outport 6
Stop Mark
Outport 6
Stop Mark
Outport 1
Stop Mark
Outport 2
Stop Mark
Outport 3
Stop Mark
Outport 6
Stop Mark
Outport 7
Stop Mark
Outport 7
Stop Mark
Outport 6
Stop Mark
Outport 7
Stop Mark
Outport 1
Stop Mark
TIME 5983
Outport 6
Stop Mark
Outport 6
Stop Mark
Outport 6
Stop Mark
Outport 7
Stop Mark
Outport 2
Stop Mark
Outport 6
Stop Mark
Outport 7
Stop Mark
Outport 6
Stop Mark
Outport 7
Stop Mark
Outport 1
Stop Mark
Outport 2
Stop Mark
TIME 5984
New Flit 59
New Flit 59
New Flit 59
New Flit 59
Outport 6
Stop Mark
Outport 6
Stop Mark
Outport 7
Stop Mark
Outport 2
Stop Mark
Outport 6
Stop Mark
Outport 7
Stop Mark
Outport 1
Stop Mark
TIME 5985
Outport 6
Stop Mark
Outport 3
Stop Mark
Outport 6
Stop Mark
Outport 7
Stop Mark
Outport 7
Stop Mark
Outport 2
Stop Mark
TIME 5986
New Flit 11
New Flit 11
New Flit 11
New Flit 11
New Flit 32
New Flit 32
New Flit 32
New Flit 32
New Flit 52
New Flit 52
New Flit 52
New Flit 52
Outport 3
Stop Mark
Outport 6
Stop Mark
Outport 7
Stop Mark
Outport 7
Stop Mark
Outport 3
Stop Mark
Outport 2
Stop Mark
TIME 5987
Outport 3
Stop Mark
Outport 7
Stop Mark
Outport 6
Stop Mark
Outport 3
Stop Mark
Outport 2
Stop Mark
TIME 5988
New Flit 46
New Flit 46
New Flit 46
New Flit 46
Outport 2
Stop Mark
Outport 3
Stop Mark
Outport 7
Stop Mark
Outport 6
Stop Mark
Outport 3
Stop Mark
Outport 6
Stop Mark
Outport 6
Stop Mark
Outport 4
Stop Mark
TIME 5989
New Flit 55
New Flit 55
New Flit 55
New Flit 55
Outport 2
Stop Mark
Outport 6
Stop Mark
Outport 3
Stop Mark
Outport 6
Stop Mark
Outport 6
Stop Mark
Outport 4
Stop Mark
TIME 5990
New Flit 34
New Flit 34
New Flit 34
New Flit 34
New Flit 63
New Flit 63
New Flit 63
New Flit 63
Outport 1
Stop Mark
Outport 4
Stop Mark
Outport 2
Stop Mark
Outport 6
Stop Mark
Outport 4
Stop Mark
Outport 6
Stop Mark
Outport 6
Stop Mark
Outport 4
Stop Mark
Outport 6
Stop Mark
TIME 5991
Outport 1
Stop Mark
Outport 4
Stop Mark
Outport 2
Stop Mark
Outport 4
Stop Mark
Outport 6
Stop Mark
Outport 6
Stop Mark
Outport 4
Stop Mark
Outport 6
Stop Mark
TIME 5992
New Flit 3
New Flit 3
New Flit 3
New Flit 3
New Flit 26
New Flit 26
New Flit 26
New Flit 26
Outport 1
Stop Mark
Outport 4
Stop Mark
Outport 4
Stop Mark
Outport 2
Stop Mark
Outport 5
Stop Mark
Outport 6
Stop Mark
TIME 5993
Outport 1
Stop Mark
Outport 4
Stop Mark
Outport 4
Stop Mark
Outport 2
Stop Mark
Outport 5
Stop Mark
Outport 3
Stop Mark
Outport 6
Stop Mark
Outport 4
Stop Mark
Outport 6
Stop Mark
TIME 5994
New Flit 34
New Flit 34
New Flit 34
New Flit 34
New Flit 43
New Flit 43
New Flit 43
New Flit 43
New Flit 63
New Flit 63
New Flit 63
New Flit 63
Outport 7
Stop Mark
Outport 2
Stop Mark
Outport 5
Stop Mark
Outport 3
Stop Mark
Outport 4
Stop Mark
Outport 6
Stop Mark
TIME 5995
Outport 6
Stop Mark
Outport 3
Stop Mark
Outport 7
Stop Mark
Outport 2
Stop Mark
Outport 5
Stop Mark
Outport 3
Stop Mark
Outport 1
Stop Mark
Outport 4
Stop Mark
Outport 6
Stop Mark
TIME 5996
Outport 4
Stop Mark
Outport 6
Stop Mark
Outport 2
Stop Mark
Outport 3
Stop Mark
Outport 7
Stop Mark
Outport 3
Stop Mark
Outport 1
Stop Mark
Outport 4
Stop Mark
Outport 6
Stop Mark
TIME 5997
New Flit 62
New Flit 62
New Flit 62
New Flit 62
Outport 4
Stop Mark
Outport 6
Stop Mark
Outport 2
Stop Mark
Outport 3
Stop Mark
Outport 7
Stop Mark
Outport 7
Stop Mark
Outport 7
Stop Mark
Outport 1
Stop Mark
Outport 6
Stop Mark
TIME 5998
Outport 4
Stop Mark
Outport 6
Stop Mark
Outport 2
Stop Mark
Outport 3
Stop Mark
Outport 4
Stop Mark
Outport 7
Stop Mark
Outport 7
Stop Mark
Outport 1
Stop Mark
Outport 6
Stop Mark
TIME 5999
Outport 4
Stop Mark
Outport 2
Stop Mark
Outport 7
Stop Mark
Outport 4
Stop Mark
Outport 7
Stop Mark
Outport 7
Stop Mark
Outport 6
Stop Mark
TIME 6000
Class 0:
Packet latency average = 20.8464
	minimum = 9
	maximum = 37
Network latency average = 20.7945
	minimum = 9
	maximum = 37
Slowest packet = 1948
Flit latency average = 17.5938
	minimum = 6
	maximum = 34
Slowest flit = 9363
Fragmentation average = 0.368848
	minimum = 0
	maximum = 7
Injected packet rate average = 0.00970833
	minimum = 0.006 (at node 54)
	maximum = 0.013 (at node 61)
Accepted packet rate average = 0.00969271
	minimum = 0.00633333 (at node 10)
	maximum = 0.0143333 (at node 22)
Injected flit rate average = 0.0388438
	minimum = 0.024 (at node 54)
	maximum = 0.052 (at node 61)
Accepted flit rate average= 0.0388021
	minimum = 0.0253333 (at node 10)
	maximum = 0.0573333 (at node 22)
Injected packet length average = 4.00107
Accepted packet length average = 4.00322
Total in-flight flits = 52 (52 measured)
latency change    = 0.00744557
throughput change = 0.0057047
Draining remaining packets ...
Outport 7
Stop Mark
Outport 3
Stop Mark
Outport 7
Stop Mark
Outport 4
Stop Mark
Outport 7
Stop Mark
Outport 7
Stop Mark
Outport 5
Stop Mark
Outport 6
Stop Mark
TIME 6001
Outport 6
Stop Mark
Outport 7
Stop Mark
Outport 3
Stop Mark
Outport 7
Stop Mark
Outport 4
Stop Mark
Outport 5
Stop Mark
Outport 4
Stop Mark
Outport 6
Stop Mark
TIME 6002
Outport 6
Stop Mark
Outport 7
Stop Mark
Outport 3
Stop Mark
Outport 7
Stop Mark
Outport 7
Stop Mark
Outport 3
Stop Mark
Outport 4
Stop Mark
Outport 5
Stop Mark
Outport 4
Stop Mark
Outport 6
Stop Mark
TIME 6003
Outport 6
Stop Mark
Outport 3
Stop Mark
Outport 7
Stop Mark
Outport 7
Stop Mark
Outport 3
Stop Mark
Outport 4
Stop Mark
Outport 7
Stop Mark
Outport 5
Stop Mark
Outport 4
Stop Mark
Outport 6
Stop Mark
TIME 6004
Outport 2
Stop Mark
Outport 6
Stop Mark
Outport 7
Stop Mark
Outport 3
Stop Mark
Outport 4
Stop Mark
Outport 7
Stop Mark
Outport 5
Stop Mark
Outport 4
Stop Mark
Outport 6
Stop Mark
TIME 6005
Outport 2
Stop Mark
Outport 0
Stop Mark
Outport 7
Stop Mark
Outport 3
Stop Mark
Outport 4
Stop Mark
Outport 7
Stop Mark
Outport 5
Stop Mark
Outport 5
Stop Mark
TIME 6006
Outport 2
Stop Mark
Outport 0
Stop Mark
Outport 6
Stop Mark
Outport 7
Stop Mark
Outport 5
Stop Mark
Outport 5
Stop Mark
TIME 6007
Outport 2
Stop Mark
Outport 3
Stop Mark
Outport 0
Stop Mark
Outport 6
Stop Mark
Outport 7
Stop Mark
Outport 5
Stop Mark
Outport 5
Stop Mark
TIME 6008
Outport 3
Stop Mark
Outport 0
Stop Mark
Outport 0
Stop Mark
Outport 6
Stop Mark
Outport 7
Stop Mark
Outport 7
Stop Mark
Outport 5
Stop Mark
Outport 7
Stop Mark
TIME 6009
Outport 3
Stop Mark
Outport 0
Stop Mark
Outport 2
Stop Mark
Outport 6
Stop Mark
Outport 7
Stop Mark
Outport 7
Stop Mark
Outport 5
Stop Mark
Outport 7
Stop Mark
TIME 6010
Outport 3
Stop Mark
Outport 2
Stop Mark
Outport 7
Stop Mark
Outport 7
Stop Mark
Outport 5
Stop Mark
Outport 7
Stop Mark
TIME 6011
Outport 0
Stop Mark
Outport 7
Stop Mark
Outport 6
Stop Mark
Outport 5
Stop Mark
Outport 7
Stop Mark
TIME 6012
Outport 7
Stop Mark
Outport 2
Stop Mark
Outport 6
Stop Mark
Outport 5
Stop Mark
TIME 6013
Outport 1
Stop Mark
Outport 1
Stop Mark
Outport 7
Stop Mark
Outport 0
Stop Mark
Outport 7
Stop Mark
Outport 6
Stop Mark
TIME 6014
Outport 1
Stop Mark
Outport 1
Stop Mark
Outport 2
Stop Mark
Outport 7
Stop Mark
Outport 6
Stop Mark
TIME 6015
Outport 1
Stop Mark
Outport 7
Stop Mark
Outport 7
Stop Mark
TIME 6016
Outport 1
Stop Mark
Outport 1
Stop Mark
Outport 7
Stop Mark
Outport 3
Stop Mark
TIME 6017
Outport 1
Stop Mark
Outport 7
Stop Mark
Outport 3
Stop Mark
TIME 6018
Outport 1
Stop Mark
Outport 1
Stop Mark
Outport 7
Stop Mark
Outport 3
Stop Mark
TIME 6019
Outport 1
Stop Mark
Outport 7
Stop Mark
Outport 3
Stop Mark
TIME 6020
Outport 7
Stop Mark
TIME 6021
Outport 1
Stop Mark
Outport 7
Stop Mark
TIME 6022
TIME 6023
Outport 0
Stop Mark
TIME 6024
Outport 0
Stop Mark
TIME 6025
Outport 0
Stop Mark
TIME 6026
Outport 0
Stop Mark
TIME 6027
TIME 6028
TIME 6029
TIME 6030
TIME 6031
Time taken is 6031 cycles
====== Overall Traffic Statistics ======
====== Traffic class 0 ======
Packet latency average = 20.8648 (1 samples)
	minimum = 9 (1 samples)
	maximum = 37 (1 samples)
Network latency average = 20.8128 (1 samples)
	minimum = 9 (1 samples)
	maximum = 37 (1 samples)
Flit latency average = 17.6188 (1 samples)
	minimum = 6 (1 samples)
	maximum = 34 (1 samples)
Fragmentation average = 0.369635 (1 samples)
	minimum = 0 (1 samples)
	maximum = 7 (1 samples)
Injected packet rate average = 0.00970833 (1 samples)
	minimum = 0.006 (1 samples)
	maximum = 0.013 (1 samples)
Accepted packet rate average = 0.00969271 (1 samples)
	minimum = 0.00633333 (1 samples)
	maximum = 0.0143333 (1 samples)
Injected flit rate average = 0.0388438 (1 samples)
	minimum = 0.024 (1 samples)
	maximum = 0.052 (1 samples)
Accepted flit rate average = 0.0388021 (1 samples)
	minimum = 0.0253333 (1 samples)
	maximum = 0.0573333 (1 samples)
Injected packet size average = 4.00107 (1 samples)
Accepted packet size average = 4.00322 (1 samples)
Hops average = 3.12339 (1 samples)
Total run time 0.415804
