BEGIN Configuration File: mesh64_ver1x
// $Id$

// Copyright (c) 2007-2015, Trustees of The Leland Stanford Junior University
// All rights reserved.
//
// Redistribution and use in source and binary forms, with or without
// modification, are permitted provided that the following conditions are met:
//
// Redistributions of source code must retain the above copyright notice, this
// list of conditions and the following disclaimer.
// Redistributions in binary form must reproduce the above copyright notice,
// this list of conditions and the following disclaimer in the documentation
// and/or other materials provided with the distribution.
//
// THIS SOFTWARE IS PROVIDED BY THE COPYRIGHT HOLDERS AND CONTRIBUTORS "AS IS"
// AND ANY EXPRESS OR IMPLIED WARRANTIES, INCLUDING, BUT NOT LIMITED TO, THE
// IMPLIED WARRANTIES OF MERCHANTABILITY AND FITNESS FOR A PARTICULAR PURPOSE
// ARE DISCLAIMED. IN NO EVENT SHALL THE COPYRIGHT OWNER OR CONTRIBUTORS BE
// LIABLE FOR ANY DIRECT, INDIRECT, INCIDENTAL, SPECIAL, EXEMPLARY, OR
// CONSEQUENTIAL DAMAGES (INCLUDING, BUT NOT LIMITED TO, PROCUREMENT OF
// SUBSTITUTE GOODS OR SERVICES; LOSS OF USE, DATA, OR PROFITS; OR BUSINESS
// INTERRUPTION) HOWEVER CAUSED AND ON ANY THEORY OF LIABILITY, WHETHER IN
// CONTRACT, STRICT LIABILITY, OR TORT (INCLUDING NEGLIGENCE OR OTHERWISE)
// ARISING IN ANY WAY OUT OF THE USE OF THIS SOFTWARE, EVEN IF ADVISED OF THE
// POSSIBILITY OF SUCH DAMAGE.

//bitwidth = 256; 
//64 banks to 64 PE arrays through 64 switches. 
//8X8 mesh with 1 flit per packet under injection mode
//injection rate here is packet per cycle, NOT flit per cycle

// Topology

topology = mesh;
k = 8;
n = 2;

// Routing
routing_function = dor;

// Flow control -- need to be determined by area constraint
num_vcs     = 4;
vc_buf_size = 2;
wait_for_tail_credit = 0;

// Router architecture -- okay with default
vc_allocator = islip;
sw_allocator = islip;
alloc_iters  = 1;

credit_delay   = 0;
routing_delay  = 0;
vc_alloc_delay = 1;
sw_alloc_delay = 1;

input_speedup     = 1;
output_speedup    = 1;
internal_speedup  = 1.0;


// Traffic
traffic = tornado;
packet_size = 1;
// viewer_trace = 1;
print_activity = 1;

// Simulation
sim_type = throughput;
trace_file = flit_trace.txt;
injection_rate = 0.01;


END Configuration File: mesh64_ver1x
Using trace file: flit_trace.txt
Class 0:
Packet latency average = 35.7905
	minimum = 30
	maximum = 47
Network latency average = 35.7905
	minimum = 30
	maximum = 47
Slowest packet = 8
Flit latency average = 35.7905
	minimum = 30
	maximum = 47
Slowest flit = 8
Fragmentation average = 0
	minimum = 0
	maximum = 0
Injected packet rate average = 0.00960937
	minimum = 0.003 (at node 21)
	maximum = 0.015 (at node 18)
Accepted packet rate average = 0.00925
	minimum = 0.003 (at node 10)
	maximum = 0.015 (at node 23)
Injected flit rate average = 0.00960937
	minimum = 0.003 (at node 21)
	maximum = 0.015 (at node 18)
Accepted flit rate average= 0.00925
	minimum = 0.003 (at node 10)
	maximum = 0.015 (at node 23)
Injected packet length average = 1
Accepted packet length average = 1
Total in-flight flits = 23 (0 measured)
latency change    = 1
throughput change = 1
Class 0:
Packet latency average = 36.1083
	minimum = 30
	maximum = 47
Network latency average = 36.1083
	minimum = 30
	maximum = 47
Slowest packet = 8
Flit latency average = 36.1083
	minimum = 30
	maximum = 47
Slowest flit = 8
Fragmentation average = 0
	minimum = 0
	maximum = 0
Injected packet rate average = 0.00977344
	minimum = 0.0045 (at node 55)
	maximum = 0.015 (at node 42)
Accepted packet rate average = 0.00959375
	minimum = 0.004 (at node 10)
	maximum = 0.0145 (at node 0)
Injected flit rate average = 0.00977344
	minimum = 0.0045 (at node 55)
	maximum = 0.015 (at node 42)
Accepted flit rate average= 0.00959375
	minimum = 0.004 (at node 10)
	maximum = 0.0145 (at node 0)
Injected packet length average = 1
Accepted packet length average = 1
Total in-flight flits = 23 (0 measured)
latency change    = 0.00880035
throughput change = 0.0358306
Class 0:
Packet latency average = 35.9712
	minimum = 30
	maximum = 47
Network latency average = 35.9712
	minimum = 30
	maximum = 47
Slowest packet = 1394
Flit latency average = 35.9712
	minimum = 30
	maximum = 47
Slowest flit = 1394
Fragmentation average = 0
	minimum = 0
	maximum = 0
Injected packet rate average = 0.0103281
	minimum = 0.003 (at node 22)
	maximum = 0.022 (at node 1)
Accepted packet rate average = 0.0102969
	minimum = 0.003 (at node 41)
	maximum = 0.024 (at node 28)
Injected flit rate average = 0.0103281
	minimum = 0.003 (at node 22)
	maximum = 0.022 (at node 1)
Accepted flit rate average= 0.0102969
	minimum = 0.003 (at node 41)
	maximum = 0.024 (at node 28)
Injected packet length average = 1
Accepted packet length average = 1
Total in-flight flits = 25 (0 measured)
latency change    = 0.00381244
throughput change = 0.0682853
Warmed up ...Time used is 3000 cycles
Class 0:
Packet latency average = -nan
	minimum = nan
	maximum = -nan
Network latency average = -nan
	minimum = nan
	maximum = -nan
Slowest packet = -1
Flit latency average = 36.3178
	minimum = 30
	maximum = 47
Slowest flit = 1947
Fragmentation average = -nan
	minimum = nan
	maximum = -nan
Injected packet rate average = 0.0100469
	minimum = 0.003 (at node 30)
	maximum = 0.017 (at node 23)
Accepted packet rate average = 0.0100781
	minimum = 0.003 (at node 49)
	maximum = 0.017 (at node 0)
Injected flit rate average = 0.0100469
	minimum = 0.003 (at node 30)
	maximum = 0.017 (at node 23)
Accepted flit rate average= 0.0100781
	minimum = 0.003 (at node 49)
	maximum = 0.017 (at node 0)
Injected packet length average = 1
Accepted packet length average = 1
Total in-flight flits = 23 (0 measured)
latency change    = nan
throughput change = 0.0217054
Class 0:
Packet latency average = -nan
	minimum = nan
	maximum = -nan
Network latency average = -nan
	minimum = nan
	maximum = -nan
Slowest packet = -1
Flit latency average = 36.1982
	minimum = 30
	maximum = 47
Slowest flit = 1947
Fragmentation average = -nan
	minimum = nan
	maximum = -nan
Injected packet rate average = 0.00976562
	minimum = 0.004 (at node 30)
	maximum = 0.016 (at node 43)
Accepted packet rate average = 0.0098125
	minimum = 0.004 (at node 49)
	maximum = 0.0165 (at node 6)
Injected flit rate average = 0.00976562
	minimum = 0.004 (at node 30)
	maximum = 0.016 (at node 43)
Accepted flit rate average= 0.0098125
	minimum = 0.004 (at node 49)
	maximum = 0.0165 (at node 6)
Injected packet length average = 1
Accepted packet length average = 1
Total in-flight flits = 19 (0 measured)
latency change    = nan
throughput change = 0.0270701
Class 0:
Packet latency average = -nan
	minimum = nan
	maximum = -nan
Network latency average = -nan
	minimum = nan
	maximum = -nan
Slowest packet = -1
Flit latency average = 36
	minimum = 30
	maximum = 47
Slowest flit = 1947
Fragmentation average = -nan
	minimum = nan
	maximum = -nan
Injected packet rate average = 0.00970833
	minimum = 0.005 (at node 30)
	maximum = 0.0136667 (at node 37)
Accepted packet rate average = 0.00969792
	minimum = 0.00466667 (at node 49)
	maximum = 0.014 (at node 6)
Injected flit rate average = 0.00970833
	minimum = 0.005 (at node 30)
	maximum = 0.0136667 (at node 37)
Accepted flit rate average= 0.00969792
	minimum = 0.00466667 (at node 49)
	maximum = 0.014 (at node 6)
Injected packet length average = 1
Accepted packet length average = 1
Total in-flight flits = 27 (0 measured)
latency change    = nan
throughput change = 0.0118153
Draining remaining packets ...
Time taken is 6046 cycles
====== Overall Traffic Statistics ======
====== Traffic class 0 ======
Packet latency average = -nan (1 samples)
	minimum = nan (1 samples)
	maximum = -nan (1 samples)
Network latency average = -nan (1 samples)
	minimum = nan (1 samples)
	maximum = -nan (1 samples)
Flit latency average = 36.0249 (1 samples)
	minimum = 30 (1 samples)
	maximum = 47 (1 samples)
Fragmentation average = -nan (1 samples)
	minimum = nan (1 samples)
	maximum = -nan (1 samples)
Injected packet rate average = 0.00970833 (1 samples)
	minimum = 0.005 (1 samples)
	maximum = 0.0136667 (1 samples)
Accepted packet rate average = 0.00969792 (1 samples)
	minimum = 0.00466667 (1 samples)
	maximum = 0.014 (1 samples)
Injected flit rate average = 0.00970833 (1 samples)
	minimum = 0.005 (1 samples)
	maximum = 0.0136667 (1 samples)
Accepted flit rate average = 0.00969792 (1 samples)
	minimum = 0.00466667 (1 samples)
	maximum = 0.014 (1 samples)
Injected packet size average = 1 (1 samples)
Accepted packet size average = 1 (1 samples)
Hops average = -nan (1 samples)
Total run time 0.260928
router_0_0.bufferMonitor:
[ 0 ] Type=0:(R#48,W#48) 
[ 1 ] Type=0:(R#0,W#0) 
[ 2 ] Type=0:(R#84,W#84) 
[ 3 ] Type=0:(R#0,W#0) 
[ 4 ] Type=0:(R#56,W#56) 

router_0_0.switchMonitor:
Inputs=5Outputs=5[0 -> 0] 0:0 
[0 -> 1] 0:0 
[0 -> 2] 0:48 
[0 -> 3] 0:0 
[0 -> 4] 0:0 
[1 -> 0] 0:0 
[1 -> 1] 0:0 
[1 -> 2] 0:0 
[1 -> 3] 0:0 
[1 -> 4] 0:0 
[2 -> 0] 0:0 
[2 -> 1] 0:0 
[2 -> 2] 0:0 
[2 -> 3] 0:0 
[2 -> 4] 0:84 
[3 -> 0] 0:0 
[3 -> 1] 0:0 
[3 -> 2] 0:0 
[3 -> 3] 0:0 
[3 -> 4] 0:0 
[4 -> 0] 0:56 
[4 -> 1] 0:0 
[4 -> 2] 0:0 
[4 -> 3] 0:0 
[4 -> 4] 0:0 

router_0_1.bufferMonitor:
[ 0 ] Type=0:(R#111,W#111) 
[ 1 ] Type=0:(R#56,W#56) 
[ 2 ] Type=0:(R#57,W#57) 
[ 3 ] Type=0:(R#0,W#0) 
[ 4 ] Type=0:(R#71,W#71) 

router_0_1.switchMonitor:
Inputs=5Outputs=5[0 -> 0] 0:0 
[0 -> 1] 0:48 
[0 -> 2] 0:63 
[0 -> 3] 0:0 
[0 -> 4] 0:0 
[1 -> 0] 0:56 
[1 -> 1] 0:0 
[1 -> 2] 0:0 
[1 -> 3] 0:0 
[1 -> 4] 0:0 
[2 -> 0] 0:0 
[2 -> 1] 0:0 
[2 -> 2] 0:0 
[2 -> 3] 0:0 
[2 -> 4] 0:57 
[3 -> 0] 0:0 
[3 -> 1] 0:0 
[3 -> 2] 0:0 
[3 -> 3] 0:0 
[3 -> 4] 0:0 
[4 -> 0] 0:71 
[4 -> 1] 0:0 
[4 -> 2] 0:0 
[4 -> 3] 0:0 
[4 -> 4] 0:0 

router_0_2.bufferMonitor:
[ 0 ] Type=0:(R#178,W#178) 
[ 1 ] Type=0:(R#127,W#127) 
[ 2 ] Type=0:(R#51,W#51) 
[ 3 ] Type=0:(R#0,W#0) 
[ 4 ] Type=0:(R#45,W#45) 

router_0_2.switchMonitor:
Inputs=5Outputs=5[0 -> 0] 0:0 
[0 -> 1] 0:111 
[0 -> 2] 0:67 
[0 -> 3] 0:0 
[0 -> 4] 0:0 
[1 -> 0] 0:127 
[1 -> 1] 0:0 
[1 -> 2] 0:0 
[1 -> 3] 0:0 
[1 -> 4] 0:0 
[2 -> 0] 0:0 
[2 -> 1] 0:0 
[2 -> 2] 0:0 
[2 -> 3] 0:0 
[2 -> 4] 0:51 
[3 -> 0] 0:0 
[3 -> 1] 0:0 
[3 -> 2] 0:0 
[3 -> 3] 0:0 
[3 -> 4] 0:0 
[4 -> 0] 0:45 
[4 -> 1] 0:0 
[4 -> 2] 0:0 
[4 -> 3] 0:0 
[4 -> 4] 0:0 

router_0_3.bufferMonitor:
[ 0 ] Type=0:(R#178,W#178) 
[ 1 ] Type=0:(R#172,W#172) 
[ 2 ] Type=0:(R#55,W#55) 
[ 3 ] Type=0:(R#0,W#0) 
[ 4 ] Type=0:(R#60,W#60) 

router_0_3.switchMonitor:
Inputs=5Outputs=5[0 -> 0] 0:0 
[0 -> 1] 0:178 
[0 -> 2] 0:0 
[0 -> 3] 0:0 
[0 -> 4] 0:0 
[1 -> 0] 0:116 
[1 -> 1] 0:0 
[1 -> 2] 0:56 
[1 -> 3] 0:0 
[1 -> 4] 0:0 
[2 -> 0] 0:0 
[2 -> 1] 0:0 
[2 -> 2] 0:0 
[2 -> 3] 0:0 
[2 -> 4] 0:55 
[3 -> 0] 0:0 
[3 -> 1] 0:0 
[3 -> 2] 0:0 
[3 -> 3] 0:0 
[3 -> 4] 0:0 
[4 -> 0] 0:60 
[4 -> 1] 0:0 
[4 -> 2] 0:0 
[4 -> 3] 0:0 
[4 -> 4] 0:0 

router_0_4.bufferMonitor:
[ 0 ] Type=0:(R#178,W#178) 
[ 1 ] Type=0:(R#176,W#176) 
[ 2 ] Type=0:(R#52,W#52) 
[ 3 ] Type=0:(R#0,W#0) 
[ 4 ] Type=0:(R#51,W#51) 

router_0_4.switchMonitor:
Inputs=5Outputs=5[0 -> 0] 0:0 
[0 -> 1] 0:178 
[0 -> 2] 0:0 
[0 -> 3] 0:0 
[0 -> 4] 0:0 
[1 -> 0] 0:105 
[1 -> 1] 0:0 
[1 -> 2] 0:71 
[1 -> 3] 0:0 
[1 -> 4] 0:0 
[2 -> 0] 0:0 
[2 -> 1] 0:0 
[2 -> 2] 0:0 
[2 -> 3] 0:0 
[2 -> 4] 0:52 
[3 -> 0] 0:0 
[3 -> 1] 0:0 
[3 -> 2] 0:0 
[3 -> 3] 0:0 
[3 -> 4] 0:0 
[4 -> 0] 0:51 
[4 -> 1] 0:0 
[4 -> 2] 0:0 
[4 -> 3] 0:0 
[4 -> 4] 0:0 

router_0_5.bufferMonitor:
[ 0 ] Type=0:(R#130,W#130) 
[ 1 ] Type=0:(R#156,W#156) 
[ 2 ] Type=0:(R#72,W#72) 
[ 3 ] Type=0:(R#0,W#0) 
[ 4 ] Type=0:(R#48,W#48) 

router_0_5.switchMonitor:
Inputs=5Outputs=5[0 -> 0] 0:0 
[0 -> 1] 0:130 
[0 -> 2] 0:0 
[0 -> 3] 0:0 
[0 -> 4] 0:0 
[1 -> 0] 0:111 
[1 -> 1] 0:0 
[1 -> 2] 0:45 
[1 -> 3] 0:0 
[1 -> 4] 0:0 
[2 -> 0] 0:0 
[2 -> 1] 0:0 
[2 -> 2] 0:0 
[2 -> 3] 0:0 
[2 -> 4] 0:72 
[3 -> 0] 0:0 
[3 -> 1] 0:0 
[3 -> 2] 0:0 
[3 -> 3] 0:0 
[3 -> 4] 0:0 
[4 -> 0] 0:0 
[4 -> 1] 0:48 
[4 -> 2] 0:0 
[4 -> 3] 0:0 
[4 -> 4] 0:0 

router_0_6.bufferMonitor:
[ 0 ] Type=0:(R#67,W#67) 
[ 1 ] Type=0:(R#111,W#111) 
[ 2 ] Type=0:(R#78,W#78) 
[ 3 ] Type=0:(R#0,W#0) 
[ 4 ] Type=0:(R#63,W#63) 

router_0_6.switchMonitor:
Inputs=5Outputs=5[0 -> 0] 0:0 
[0 -> 1] 0:67 
[0 -> 2] 0:0 
[0 -> 3] 0:0 
[0 -> 4] 0:0 
[1 -> 0] 0:51 
[1 -> 1] 0:0 
[1 -> 2] 0:60 
[1 -> 3] 0:0 
[1 -> 4] 0:0 
[2 -> 0] 0:0 
[2 -> 1] 0:0 
[2 -> 2] 0:0 
[2 -> 3] 0:0 
[2 -> 4] 0:78 
[3 -> 0] 0:0 
[3 -> 1] 0:0 
[3 -> 2] 0:0 
[3 -> 3] 0:0 
[3 -> 4] 0:0 
[4 -> 0] 0:0 
[4 -> 1] 0:63 
[4 -> 2] 0:0 
[4 -> 3] 0:0 
[4 -> 4] 0:0 

router_0_7.bufferMonitor:
[ 0 ] Type=0:(R#0,W#0) 
[ 1 ] Type=0:(R#51,W#51) 
[ 2 ] Type=0:(R#65,W#65) 
[ 3 ] Type=0:(R#0,W#0) 
[ 4 ] Type=0:(R#67,W#67) 

router_0_7.switchMonitor:
Inputs=5Outputs=5[0 -> 0] 0:0 
[0 -> 1] 0:0 
[0 -> 2] 0:0 
[0 -> 3] 0:0 
[0 -> 4] 0:0 
[1 -> 0] 0:0 
[1 -> 1] 0:0 
[1 -> 2] 0:51 
[1 -> 3] 0:0 
[1 -> 4] 0:0 
[2 -> 0] 0:0 
[2 -> 1] 0:0 
[2 -> 2] 0:0 
[2 -> 3] 0:0 
[2 -> 4] 0:65 
[3 -> 0] 0:0 
[3 -> 1] 0:0 
[3 -> 2] 0:0 
[3 -> 3] 0:0 
[3 -> 4] 0:0 
[4 -> 0] 0:0 
[4 -> 1] 0:67 
[4 -> 2] 0:0 
[4 -> 3] 0:0 
[4 -> 4] 0:0 

router_1_0.bufferMonitor:
[ 0 ] Type=0:(R#51,W#51) 
[ 1 ] Type=0:(R#0,W#0) 
[ 2 ] Type=0:(R#129,W#129) 
[ 3 ] Type=0:(R#48,W#48) 
[ 4 ] Type=0:(R#63,W#63) 

router_1_0.switchMonitor:
Inputs=5Outputs=5[0 -> 0] 0:0 
[0 -> 1] 0:0 
[0 -> 2] 0:51 
[0 -> 3] 0:0 
[0 -> 4] 0:0 
[1 -> 0] 0:0 
[1 -> 1] 0:0 
[1 -> 2] 0:0 
[1 -> 3] 0:0 
[1 -> 4] 0:0 
[2 -> 0] 0:0 
[2 -> 1] 0:0 
[2 -> 2] 0:0 
[2 -> 3] 0:84 
[2 -> 4] 0:45 
[3 -> 0] 0:0 
[3 -> 1] 0:0 
[3 -> 2] 0:48 
[3 -> 3] 0:0 
[3 -> 4] 0:0 
[4 -> 0] 0:63 
[4 -> 1] 0:0 
[4 -> 2] 0:0 
[4 -> 3] 0:0 
[4 -> 4] 0:0 

router_1_1.bufferMonitor:
[ 0 ] Type=0:(R#100,W#100) 
[ 1 ] Type=0:(R#63,W#63) 
[ 2 ] Type=0:(R#114,W#114) 
[ 3 ] Type=0:(R#63,W#63) 
[ 4 ] Type=0:(R#59,W#59) 

router_1_1.switchMonitor:
Inputs=5Outputs=5[0 -> 0] 0:0 
[0 -> 1] 0:51 
[0 -> 2] 0:49 
[0 -> 3] 0:0 
[0 -> 4] 0:0 
[1 -> 0] 0:63 
[1 -> 1] 0:0 
[1 -> 2] 0:0 
[1 -> 3] 0:0 
[1 -> 4] 0:0 
[2 -> 0] 0:0 
[2 -> 1] 0:0 
[2 -> 2] 0:0 
[2 -> 3] 0:57 
[2 -> 4] 0:57 
[3 -> 0] 0:0 
[3 -> 1] 0:0 
[3 -> 2] 0:63 
[3 -> 3] 0:0 
[3 -> 4] 0:0 
[4 -> 0] 0:59 
[4 -> 1] 0:0 
[4 -> 2] 0:0 
[4 -> 3] 0:0 
[4 -> 4] 0:0 

router_1_2.bufferMonitor:
[ 0 ] Type=0:(R#158,W#158) 
[ 1 ] Type=0:(R#122,W#122) 
[ 2 ] Type=0:(R#103,W#103) 
[ 3 ] Type=0:(R#67,W#67) 
[ 4 ] Type=0:(R#64,W#64) 

router_1_2.switchMonitor:
Inputs=5Outputs=5[0 -> 0] 0:0 
[0 -> 1] 0:100 
[0 -> 2] 0:58 
[0 -> 3] 0:0 
[0 -> 4] 0:0 
[1 -> 0] 0:122 
[1 -> 1] 0:0 
[1 -> 2] 0:0 
[1 -> 3] 0:0 
[1 -> 4] 0:0 
[2 -> 0] 0:0 
[2 -> 1] 0:0 
[2 -> 2] 0:0 
[2 -> 3] 0:51 
[2 -> 4] 0:52 
[3 -> 0] 0:0 
[3 -> 1] 0:0 
[3 -> 2] 0:67 
[3 -> 3] 0:0 
[3 -> 4] 0:0 
[4 -> 0] 0:64 
[4 -> 1] 0:0 
[4 -> 2] 0:0 
[4 -> 3] 0:0 
[4 -> 4] 0:0 

router_1_3.bufferMonitor:
[ 0 ] Type=0:(R#158,W#158) 
[ 1 ] Type=0:(R#186,W#186) 
[ 2 ] Type=0:(R#103,W#103) 
[ 3 ] Type=0:(R#56,W#56) 
[ 4 ] Type=0:(R#65,W#65) 

router_1_3.switchMonitor:
Inputs=5Outputs=5[0 -> 0] 0:0 
[0 -> 1] 0:158 
[0 -> 2] 0:0 
[0 -> 3] 0:0 
[0 -> 4] 0:0 
[1 -> 0] 0:123 
[1 -> 1] 0:0 
[1 -> 2] 0:63 
[1 -> 3] 0:0 
[1 -> 4] 0:0 
[2 -> 0] 0:0 
[2 -> 1] 0:0 
[2 -> 2] 0:0 
[2 -> 3] 0:55 
[2 -> 4] 0:48 
[3 -> 0] 0:0 
[3 -> 1] 0:0 
[3 -> 2] 0:56 
[3 -> 3] 0:0 
[3 -> 4] 0:0 
[4 -> 0] 0:65 
[4 -> 1] 0:0 
[4 -> 2] 0:0 
[4 -> 3] 0:0 
[4 -> 4] 0:0 

router_1_4.bufferMonitor:
[ 0 ] Type=0:(R#158,W#158) 
[ 1 ] Type=0:(R#188,W#188) 
[ 2 ] Type=0:(R#108,W#108) 
[ 3 ] Type=0:(R#71,W#71) 
[ 4 ] Type=0:(R#60,W#60) 

router_1_4.switchMonitor:
Inputs=5Outputs=5[0 -> 0] 0:0 
[0 -> 1] 0:158 
[0 -> 2] 0:0 
[0 -> 3] 0:0 
[0 -> 4] 0:0 
[1 -> 0] 0:129 
[1 -> 1] 0:0 
[1 -> 2] 0:59 
[1 -> 3] 0:0 
[1 -> 4] 0:0 
[2 -> 0] 0:0 
[2 -> 1] 0:0 
[2 -> 2] 0:0 
[2 -> 3] 0:52 
[2 -> 4] 0:56 
[3 -> 0] 0:0 
[3 -> 1] 0:0 
[3 -> 2] 0:71 
[3 -> 3] 0:0 
[3 -> 4] 0:0 
[4 -> 0] 0:60 
[4 -> 1] 0:0 
[4 -> 2] 0:0 
[4 -> 3] 0:0 
[4 -> 4] 0:0 

router_1_5.bufferMonitor:
[ 0 ] Type=0:(R#107,W#107) 
[ 1 ] Type=0:(R#189,W#189) 
[ 2 ] Type=0:(R#111,W#111) 
[ 3 ] Type=0:(R#45,W#45) 
[ 4 ] Type=0:(R#51,W#51) 

router_1_5.switchMonitor:
Inputs=5Outputs=5[0 -> 0] 0:0 
[0 -> 1] 0:107 
[0 -> 2] 0:0 
[0 -> 3] 0:0 
[0 -> 4] 0:0 
[1 -> 0] 0:125 
[1 -> 1] 0:0 
[1 -> 2] 0:64 
[1 -> 3] 0:0 
[1 -> 4] 0:0 
[2 -> 0] 0:0 
[2 -> 1] 0:0 
[2 -> 2] 0:0 
[2 -> 3] 0:72 
[2 -> 4] 0:39 
[3 -> 0] 0:0 
[3 -> 1] 0:0 
[3 -> 2] 0:45 
[3 -> 3] 0:0 
[3 -> 4] 0:0 
[4 -> 0] 0:0 
[4 -> 1] 0:51 
[4 -> 2] 0:0 
[4 -> 3] 0:0 
[4 -> 4] 0:0 

router_1_6.bufferMonitor:
[ 0 ] Type=0:(R#58,W#58) 
[ 1 ] Type=0:(R#125,W#125) 
[ 2 ] Type=0:(R#145,W#145) 
[ 3 ] Type=0:(R#60,W#60) 
[ 4 ] Type=0:(R#49,W#49) 

router_1_6.switchMonitor:
Inputs=5Outputs=5[0 -> 0] 0:0 
[0 -> 1] 0:58 
[0 -> 2] 0:0 
[0 -> 3] 0:0 
[0 -> 4] 0:0 
[1 -> 0] 0:60 
[1 -> 1] 0:0 
[1 -> 2] 0:65 
[1 -> 3] 0:0 
[1 -> 4] 0:0 
[2 -> 0] 0:0 
[2 -> 1] 0:0 
[2 -> 2] 0:0 
[2 -> 3] 0:78 
[2 -> 4] 0:67 
[3 -> 0] 0:0 
[3 -> 1] 0:0 
[3 -> 2] 0:60 
[3 -> 3] 0:0 
[3 -> 4] 0:0 
[4 -> 0] 0:0 
[4 -> 1] 0:49 
[4 -> 2] 0:0 
[4 -> 3] 0:0 
[4 -> 4] 0:0 

router_1_7.bufferMonitor:
[ 0 ] Type=0:(R#0,W#0) 
[ 1 ] Type=0:(R#60,W#60) 
[ 2 ] Type=0:(R#123,W#123) 
[ 3 ] Type=0:(R#51,W#51) 
[ 4 ] Type=0:(R#58,W#58) 

router_1_7.switchMonitor:
Inputs=5Outputs=5[0 -> 0] 0:0 
[0 -> 1] 0:0 
[0 -> 2] 0:0 
[0 -> 3] 0:0 
[0 -> 4] 0:0 
[1 -> 0] 0:0 
[1 -> 1] 0:0 
[1 -> 2] 0:60 
[1 -> 3] 0:0 
[1 -> 4] 0:0 
[2 -> 0] 0:0 
[2 -> 1] 0:0 
[2 -> 2] 0:0 
[2 -> 3] 0:65 
[2 -> 4] 0:58 
[3 -> 0] 0:0 
[3 -> 1] 0:0 
[3 -> 2] 0:51 
[3 -> 3] 0:0 
[3 -> 4] 0:0 
[4 -> 0] 0:0 
[4 -> 1] 0:58 
[4 -> 2] 0:0 
[4 -> 3] 0:0 
[4 -> 4] 0:0 

router_2_0.bufferMonitor:
[ 0 ] Type=0:(R#53,W#53) 
[ 1 ] Type=0:(R#0,W#0) 
[ 2 ] Type=0:(R#187,W#187) 
[ 3 ] Type=0:(R#99,W#99) 
[ 4 ] Type=0:(R#74,W#74) 

router_2_0.switchMonitor:
Inputs=5Outputs=5[0 -> 0] 0:0 
[0 -> 1] 0:0 
[0 -> 2] 0:53 
[0 -> 3] 0:0 
[0 -> 4] 0:0 
[1 -> 0] 0:0 
[1 -> 1] 0:0 
[1 -> 2] 0:0 
[1 -> 3] 0:0 
[1 -> 4] 0:0 
[2 -> 0] 0:0 
[2 -> 1] 0:0 
[2 -> 2] 0:0 
[2 -> 3] 0:129 
[2 -> 4] 0:58 
[3 -> 0] 0:0 
[3 -> 1] 0:0 
[3 -> 2] 0:99 
[3 -> 3] 0:0 
[3 -> 4] 0:0 
[4 -> 0] 0:74 
[4 -> 1] 0:0 
[4 -> 2] 0:0 
[4 -> 3] 0:0 
[4 -> 4] 0:0 

router_2_1.bufferMonitor:
[ 0 ] Type=0:(R#109,W#109) 
[ 1 ] Type=0:(R#74,W#74) 
[ 2 ] Type=0:(R#176,W#176) 
[ 3 ] Type=0:(R#112,W#112) 
[ 4 ] Type=0:(R#56,W#56) 

router_2_1.switchMonitor:
Inputs=5Outputs=5[0 -> 0] 0:0 
[0 -> 1] 0:53 
[0 -> 2] 0:56 
[0 -> 3] 0:0 
[0 -> 4] 0:0 
[1 -> 0] 0:74 
[1 -> 1] 0:0 
[1 -> 2] 0:0 
[1 -> 3] 0:0 
[1 -> 4] 0:0 
[2 -> 0] 0:0 
[2 -> 1] 0:0 
[2 -> 2] 0:0 
[2 -> 3] 0:114 
[2 -> 4] 0:62 
[3 -> 0] 0:0 
[3 -> 1] 0:0 
[3 -> 2] 0:112 
[3 -> 3] 0:0 
[3 -> 4] 0:0 
[4 -> 0] 0:56 
[4 -> 1] 0:0 
[4 -> 2] 0:0 
[4 -> 3] 0:0 
[4 -> 4] 0:0 

router_2_2.bufferMonitor:
[ 0 ] Type=0:(R#177,W#177) 
[ 1 ] Type=0:(R#130,W#130) 
[ 2 ] Type=0:(R#160,W#160) 
[ 3 ] Type=0:(R#125,W#125) 
[ 4 ] Type=0:(R#53,W#53) 

router_2_2.switchMonitor:
Inputs=5Outputs=5[0 -> 0] 0:0 
[0 -> 1] 0:109 
[0 -> 2] 0:68 
[0 -> 3] 0:0 
[0 -> 4] 0:0 
[1 -> 0] 0:130 
[1 -> 1] 0:0 
[1 -> 2] 0:0 
[1 -> 3] 0:0 
[1 -> 4] 0:0 
[2 -> 0] 0:0 
[2 -> 1] 0:0 
[2 -> 2] 0:0 
[2 -> 3] 0:103 
[2 -> 4] 0:57 
[3 -> 0] 0:0 
[3 -> 1] 0:0 
[3 -> 2] 0:125 
[3 -> 3] 0:0 
[3 -> 4] 0:0 
[4 -> 0] 0:53 
[4 -> 1] 0:0 
[4 -> 2] 0:0 
[4 -> 3] 0:0 
[4 -> 4] 0:0 

router_2_3.bufferMonitor:
[ 0 ] Type=0:(R#177,W#177) 
[ 1 ] Type=0:(R#183,W#183) 
[ 2 ] Type=0:(R#168,W#168) 
[ 3 ] Type=0:(R#119,W#119) 
[ 4 ] Type=0:(R#56,W#56) 

router_2_3.switchMonitor:
Inputs=5Outputs=5[0 -> 0] 0:0 
[0 -> 1] 0:177 
[0 -> 2] 0:0 
[0 -> 3] 0:0 
[0 -> 4] 0:0 
[1 -> 0] 0:109 
[1 -> 1] 0:0 
[1 -> 2] 0:74 
[1 -> 3] 0:0 
[1 -> 4] 0:0 
[2 -> 0] 0:0 
[2 -> 1] 0:0 
[2 -> 2] 0:0 
[2 -> 3] 0:103 
[2 -> 4] 0:65 
[3 -> 0] 0:0 
[3 -> 1] 0:0 
[3 -> 2] 0:119 
[3 -> 3] 0:0 
[3 -> 4] 0:0 
[4 -> 0] 0:56 
[4 -> 1] 0:0 
[4 -> 2] 0:0 
[4 -> 3] 0:0 
[4 -> 4] 0:0 

router_2_4.bufferMonitor:
[ 0 ] Type=0:(R#177,W#177) 
[ 1 ] Type=0:(R#165,W#165) 
[ 2 ] Type=0:(R#166,W#166) 
[ 3 ] Type=0:(R#130,W#130) 
[ 4 ] Type=0:(R#58,W#58) 

router_2_4.switchMonitor:
Inputs=5Outputs=5[0 -> 0] 0:0 
[0 -> 1] 0:177 
[0 -> 2] 0:0 
[0 -> 3] 0:0 
[0 -> 4] 0:0 
[1 -> 0] 0:109 
[1 -> 1] 0:0 
[1 -> 2] 0:56 
[1 -> 3] 0:0 
[1 -> 4] 0:0 
[2 -> 0] 0:0 
[2 -> 1] 0:0 
[2 -> 2] 0:0 
[2 -> 3] 0:108 
[2 -> 4] 0:58 
[3 -> 0] 0:0 
[3 -> 1] 0:0 
[3 -> 2] 0:130 
[3 -> 3] 0:0 
[3 -> 4] 0:0 
[4 -> 0] 0:58 
[4 -> 1] 0:0 
[4 -> 2] 0:0 
[4 -> 3] 0:0 
[4 -> 4] 0:0 

router_2_5.bufferMonitor:
[ 0 ] Type=0:(R#124,W#124) 
[ 1 ] Type=0:(R#167,W#167) 
[ 2 ] Type=0:(R#173,W#173) 
[ 3 ] Type=0:(R#109,W#109) 
[ 4 ] Type=0:(R#53,W#53) 

router_2_5.switchMonitor:
Inputs=5Outputs=5[0 -> 0] 0:0 
[0 -> 1] 0:124 
[0 -> 2] 0:0 
[0 -> 3] 0:0 
[0 -> 4] 0:0 
[1 -> 0] 0:114 
[1 -> 1] 0:0 
[1 -> 2] 0:53 
[1 -> 3] 0:0 
[1 -> 4] 0:0 
[2 -> 0] 0:0 
[2 -> 1] 0:0 
[2 -> 2] 0:0 
[2 -> 3] 0:111 
[2 -> 4] 0:62 
[3 -> 0] 0:0 
[3 -> 1] 0:0 
[3 -> 2] 0:109 
[3 -> 3] 0:0 
[3 -> 4] 0:0 
[4 -> 0] 0:0 
[4 -> 1] 0:53 
[4 -> 2] 0:0 
[4 -> 3] 0:0 
[4 -> 4] 0:0 

router_2_6.bufferMonitor:
[ 0 ] Type=0:(R#68,W#68) 
[ 1 ] Type=0:(R#114,W#114) 
[ 2 ] Type=0:(R#219,W#219) 
[ 3 ] Type=0:(R#125,W#125) 
[ 4 ] Type=0:(R#56,W#56) 

router_2_6.switchMonitor:
Inputs=5Outputs=5[0 -> 0] 0:0 
[0 -> 1] 0:68 
[0 -> 2] 0:0 
[0 -> 3] 0:0 
[0 -> 4] 0:0 
[1 -> 0] 0:58 
[1 -> 1] 0:0 
[1 -> 2] 0:56 
[1 -> 3] 0:0 
[1 -> 4] 0:0 
[2 -> 0] 0:0 
[2 -> 1] 0:0 
[2 -> 2] 0:0 
[2 -> 3] 0:145 
[2 -> 4] 0:74 
[3 -> 0] 0:0 
[3 -> 1] 0:0 
[3 -> 2] 0:125 
[3 -> 3] 0:0 
[3 -> 4] 0:0 
[4 -> 0] 0:0 
[4 -> 1] 0:56 
[4 -> 2] 0:0 
[4 -> 3] 0:0 
[4 -> 4] 0:0 

router_2_7.bufferMonitor:
[ 0 ] Type=0:(R#0,W#0) 
[ 1 ] Type=0:(R#58,W#58) 
[ 2 ] Type=0:(R#194,W#194) 
[ 3 ] Type=0:(R#111,W#111) 
[ 4 ] Type=0:(R#68,W#68) 

router_2_7.switchMonitor:
Inputs=5Outputs=5[0 -> 0] 0:0 
[0 -> 1] 0:0 
[0 -> 2] 0:0 
[0 -> 3] 0:0 
[0 -> 4] 0:0 
[1 -> 0] 0:0 
[1 -> 1] 0:0 
[1 -> 2] 0:58 
[1 -> 3] 0:0 
[1 -> 4] 0:0 
[2 -> 0] 0:0 
[2 -> 1] 0:0 
[2 -> 2] 0:0 
[2 -> 3] 0:123 
[2 -> 4] 0:71 
[3 -> 0] 0:0 
[3 -> 1] 0:0 
[3 -> 2] 0:111 
[3 -> 3] 0:0 
[3 -> 4] 0:0 
[4 -> 0] 0:0 
[4 -> 1] 0:68 
[4 -> 2] 0:0 
[4 -> 3] 0:0 
[4 -> 4] 0:0 

router_3_0.bufferMonitor:
[ 0 ] Type=0:(R#64,W#64) 
[ 1 ] Type=0:(R#0,W#0) 
[ 2 ] Type=0:(R#187,W#187) 
[ 3 ] Type=0:(R#152,W#152) 
[ 4 ] Type=0:(R#49,W#49) 

router_3_0.switchMonitor:
Inputs=5Outputs=5[0 -> 0] 0:0 
[0 -> 1] 0:0 
[0 -> 2] 0:64 
[0 -> 3] 0:0 
[0 -> 4] 0:0 
[1 -> 0] 0:0 
[1 -> 1] 0:0 
[1 -> 2] 0:0 
[1 -> 3] 0:0 
[1 -> 4] 0:0 
[2 -> 0] 0:0 
[2 -> 1] 0:0 
[2 -> 2] 0:0 
[2 -> 3] 0:187 
[2 -> 4] 0:0 
[3 -> 0] 0:0 
[3 -> 1] 0:0 
[3 -> 2] 0:104 
[3 -> 3] 0:0 
[3 -> 4] 0:48 
[4 -> 0] 0:49 
[4 -> 1] 0:0 
[4 -> 2] 0:0 
[4 -> 3] 0:0 
[4 -> 4] 0:0 

router_3_1.bufferMonitor:
[ 0 ] Type=0:(R#103,W#103) 
[ 1 ] Type=0:(R#49,W#49) 
[ 2 ] Type=0:(R#176,W#176) 
[ 3 ] Type=0:(R#168,W#168) 
[ 4 ] Type=0:(R#66,W#66) 

router_3_1.switchMonitor:
Inputs=5Outputs=5[0 -> 0] 0:0 
[0 -> 1] 0:64 
[0 -> 2] 0:39 
[0 -> 3] 0:0 
[0 -> 4] 0:0 
[1 -> 0] 0:49 
[1 -> 1] 0:0 
[1 -> 2] 0:0 
[1 -> 3] 0:0 
[1 -> 4] 0:0 
[2 -> 0] 0:0 
[2 -> 1] 0:0 
[2 -> 2] 0:0 
[2 -> 3] 0:176 
[2 -> 4] 0:0 
[3 -> 0] 0:0 
[3 -> 1] 0:0 
[3 -> 2] 0:105 
[3 -> 3] 0:0 
[3 -> 4] 0:63 
[4 -> 0] 0:66 
[4 -> 1] 0:0 
[4 -> 2] 0:0 
[4 -> 3] 0:0 
[4 -> 4] 0:0 

router_3_2.bufferMonitor:
[ 0 ] Type=0:(R#164,W#164) 
[ 1 ] Type=0:(R#115,W#115) 
[ 2 ] Type=0:(R#160,W#160) 
[ 3 ] Type=0:(R#193,W#193) 
[ 4 ] Type=0:(R#51,W#51) 

router_3_2.switchMonitor:
Inputs=5Outputs=5[0 -> 0] 0:0 
[0 -> 1] 0:103 
[0 -> 2] 0:61 
[0 -> 3] 0:0 
[0 -> 4] 0:0 
[1 -> 0] 0:115 
[1 -> 1] 0:0 
[1 -> 2] 0:0 
[1 -> 3] 0:0 
[1 -> 4] 0:0 
[2 -> 0] 0:0 
[2 -> 1] 0:0 
[2 -> 2] 0:0 
[2 -> 3] 0:160 
[2 -> 4] 0:0 
[3 -> 0] 0:0 
[3 -> 1] 0:0 
[3 -> 2] 0:126 
[3 -> 3] 0:0 
[3 -> 4] 0:67 
[4 -> 0] 0:51 
[4 -> 1] 0:0 
[4 -> 2] 0:0 
[4 -> 3] 0:0 
[4 -> 4] 0:0 

router_3_3.bufferMonitor:
[ 0 ] Type=0:(R#164,W#164) 
[ 1 ] Type=0:(R#166,W#166) 
[ 2 ] Type=0:(R#168,W#168) 
[ 3 ] Type=0:(R#193,W#193) 
[ 4 ] Type=0:(R#43,W#43) 

router_3_3.switchMonitor:
Inputs=5Outputs=5[0 -> 0] 0:0 
[0 -> 1] 0:164 
[0 -> 2] 0:0 
[0 -> 3] 0:0 
[0 -> 4] 0:0 
[1 -> 0] 0:117 
[1 -> 1] 0:0 
[1 -> 2] 0:49 
[1 -> 3] 0:0 
[1 -> 4] 0:0 
[2 -> 0] 0:0 
[2 -> 1] 0:0 
[2 -> 2] 0:0 
[2 -> 3] 0:168 
[2 -> 4] 0:0 
[3 -> 0] 0:0 
[3 -> 1] 0:0 
[3 -> 2] 0:137 
[3 -> 3] 0:0 
[3 -> 4] 0:56 
[4 -> 0] 0:43 
[4 -> 1] 0:0 
[4 -> 2] 0:0 
[4 -> 3] 0:0 
[4 -> 4] 0:0 

router_3_4.bufferMonitor:
[ 0 ] Type=0:(R#164,W#164) 
[ 1 ] Type=0:(R#160,W#160) 
[ 2 ] Type=0:(R#166,W#166) 
[ 3 ] Type=0:(R#186,W#186) 
[ 4 ] Type=0:(R#54,W#54) 

router_3_4.switchMonitor:
Inputs=5Outputs=5[0 -> 0] 0:0 
[0 -> 1] 0:164 
[0 -> 2] 0:0 
[0 -> 3] 0:0 
[0 -> 4] 0:0 
[1 -> 0] 0:94 
[1 -> 1] 0:0 
[1 -> 2] 0:66 
[1 -> 3] 0:0 
[1 -> 4] 0:0 
[2 -> 0] 0:0 
[2 -> 1] 0:0 
[2 -> 2] 0:0 
[2 -> 3] 0:166 
[2 -> 4] 0:0 
[3 -> 0] 0:0 
[3 -> 1] 0:0 
[3 -> 2] 0:115 
[3 -> 3] 0:0 
[3 -> 4] 0:71 
[4 -> 0] 0:54 
[4 -> 1] 0:0 
[4 -> 2] 0:0 
[4 -> 3] 0:0 
[4 -> 4] 0:0 

router_3_5.bufferMonitor:
[ 0 ] Type=0:(R#100,W#100) 
[ 1 ] Type=0:(R#148,W#148) 
[ 2 ] Type=0:(R#173,W#173) 
[ 3 ] Type=0:(R#162,W#162) 
[ 4 ] Type=0:(R#64,W#64) 

router_3_5.switchMonitor:
Inputs=5Outputs=5[0 -> 0] 0:0 
[0 -> 1] 0:100 
[0 -> 2] 0:0 
[0 -> 3] 0:0 
[0 -> 4] 0:0 
[1 -> 0] 0:97 
[1 -> 1] 0:0 
[1 -> 2] 0:51 
[1 -> 3] 0:0 
[1 -> 4] 0:0 
[2 -> 0] 0:0 
[2 -> 1] 0:0 
[2 -> 2] 0:0 
[2 -> 3] 0:173 
[2 -> 4] 0:0 
[3 -> 0] 0:0 
[3 -> 1] 0:0 
[3 -> 2] 0:117 
[3 -> 3] 0:0 
[3 -> 4] 0:45 
[4 -> 0] 0:0 
[4 -> 1] 0:64 
[4 -> 2] 0:0 
[4 -> 3] 0:0 
[4 -> 4] 0:0 

router_3_6.bufferMonitor:
[ 0 ] Type=0:(R#61,W#61) 
[ 1 ] Type=0:(R#97,W#97) 
[ 2 ] Type=0:(R#219,W#219) 
[ 3 ] Type=0:(R#181,W#181) 
[ 4 ] Type=0:(R#39,W#39) 

router_3_6.switchMonitor:
Inputs=5Outputs=5[0 -> 0] 0:0 
[0 -> 1] 0:61 
[0 -> 2] 0:0 
[0 -> 3] 0:0 
[0 -> 4] 0:0 
[1 -> 0] 0:54 
[1 -> 1] 0:0 
[1 -> 2] 0:43 
[1 -> 3] 0:0 
[1 -> 4] 0:0 
[2 -> 0] 0:0 
[2 -> 1] 0:0 
[2 -> 2] 0:0 
[2 -> 3] 0:219 
[2 -> 4] 0:0 
[3 -> 0] 0:0 
[3 -> 1] 0:0 
[3 -> 2] 0:121 
[3 -> 3] 0:0 
[3 -> 4] 0:60 
[4 -> 0] 0:0 
[4 -> 1] 0:39 
[4 -> 2] 0:0 
[4 -> 3] 0:0 
[4 -> 4] 0:0 

router_3_7.bufferMonitor:
[ 0 ] Type=0:(R#0,W#0) 
[ 1 ] Type=0:(R#54,W#54) 
[ 2 ] Type=0:(R#194,W#194) 
[ 3 ] Type=0:(R#169,W#169) 
[ 4 ] Type=0:(R#61,W#61) 

router_3_7.switchMonitor:
Inputs=5Outputs=5[0 -> 0] 0:0 
[0 -> 1] 0:0 
[0 -> 2] 0:0 
[0 -> 3] 0:0 
[0 -> 4] 0:0 
[1 -> 0] 0:0 
[1 -> 1] 0:0 
[1 -> 2] 0:54 
[1 -> 3] 0:0 
[1 -> 4] 0:0 
[2 -> 0] 0:0 
[2 -> 1] 0:0 
[2 -> 2] 0:0 
[2 -> 3] 0:194 
[2 -> 4] 0:0 
[3 -> 0] 0:0 
[3 -> 1] 0:0 
[3 -> 2] 0:118 
[3 -> 3] 0:0 
[3 -> 4] 0:51 
[4 -> 0] 0:0 
[4 -> 1] 0:61 
[4 -> 2] 0:0 
[4 -> 3] 0:0 
[4 -> 4] 0:0 

router_4_0.bufferMonitor:
[ 0 ] Type=0:(R#79,W#79) 
[ 1 ] Type=0:(R#0,W#0) 
[ 2 ] Type=0:(R#187,W#187) 
[ 3 ] Type=0:(R#168,W#168) 
[ 4 ] Type=0:(R#53,W#53) 

router_4_0.switchMonitor:
Inputs=5Outputs=5[0 -> 0] 0:0 
[0 -> 1] 0:0 
[0 -> 2] 0:79 
[0 -> 3] 0:0 
[0 -> 4] 0:0 
[1 -> 0] 0:0 
[1 -> 1] 0:0 
[1 -> 2] 0:0 
[1 -> 3] 0:0 
[1 -> 4] 0:0 
[2 -> 0] 0:0 
[2 -> 1] 0:0 
[2 -> 2] 0:0 
[2 -> 3] 0:187 
[2 -> 4] 0:0 
[3 -> 0] 0:0 
[3 -> 1] 0:0 
[3 -> 2] 0:117 
[3 -> 3] 0:0 
[3 -> 4] 0:51 
[4 -> 0] 0:53 
[4 -> 1] 0:0 
[4 -> 2] 0:0 
[4 -> 3] 0:0 
[4 -> 4] 0:0 

router_4_1.bufferMonitor:
[ 0 ] Type=0:(R#140,W#140) 
[ 1 ] Type=0:(R#53,W#53) 
[ 2 ] Type=0:(R#176,W#176) 
[ 3 ] Type=0:(R#144,W#144) 
[ 4 ] Type=0:(R#58,W#58) 

router_4_1.switchMonitor:
Inputs=5Outputs=5[0 -> 0] 0:0 
[0 -> 1] 0:79 
[0 -> 2] 0:61 
[0 -> 3] 0:0 
[0 -> 4] 0:0 
[1 -> 0] 0:53 
[1 -> 1] 0:0 
[1 -> 2] 0:0 
[1 -> 3] 0:0 
[1 -> 4] 0:0 
[2 -> 0] 0:0 
[2 -> 1] 0:0 
[2 -> 2] 0:0 
[2 -> 3] 0:176 
[2 -> 4] 0:0 
[3 -> 0] 0:0 
[3 -> 1] 0:0 
[3 -> 2] 0:95 
[3 -> 3] 0:0 
[3 -> 4] 0:49 
[4 -> 0] 0:58 
[4 -> 1] 0:0 
[4 -> 2] 0:0 
[4 -> 3] 0:0 
[4 -> 4] 0:0 

router_4_2.bufferMonitor:
[ 0 ] Type=0:(R#197,W#197) 
[ 1 ] Type=0:(R#111,W#111) 
[ 2 ] Type=0:(R#160,W#160) 
[ 3 ] Type=0:(R#187,W#187) 
[ 4 ] Type=0:(R#57,W#57) 

router_4_2.switchMonitor:
Inputs=5Outputs=5[0 -> 0] 0:0 
[0 -> 1] 0:140 
[0 -> 2] 0:57 
[0 -> 3] 0:0 
[0 -> 4] 0:0 
[1 -> 0] 0:111 
[1 -> 1] 0:0 
[1 -> 2] 0:0 
[1 -> 3] 0:0 
[1 -> 4] 0:0 
[2 -> 0] 0:0 
[2 -> 1] 0:0 
[2 -> 2] 0:0 
[2 -> 3] 0:160 
[2 -> 4] 0:0 
[3 -> 0] 0:0 
[3 -> 1] 0:0 
[3 -> 2] 0:129 
[3 -> 3] 0:0 
[3 -> 4] 0:58 
[4 -> 0] 0:57 
[4 -> 1] 0:0 
[4 -> 2] 0:0 
[4 -> 3] 0:0 
[4 -> 4] 0:0 

router_4_3.bufferMonitor:
[ 0 ] Type=0:(R#197,W#197) 
[ 1 ] Type=0:(R#168,W#168) 
[ 2 ] Type=0:(R#168,W#168) 
[ 3 ] Type=0:(R#186,W#186) 
[ 4 ] Type=0:(R#64,W#64) 

router_4_3.switchMonitor:
Inputs=5Outputs=5[0 -> 0] 0:0 
[0 -> 1] 0:197 
[0 -> 2] 0:0 
[0 -> 3] 0:0 
[0 -> 4] 0:0 
[1 -> 0] 0:115 
[1 -> 1] 0:0 
[1 -> 2] 0:53 
[1 -> 3] 0:0 
[1 -> 4] 0:0 
[2 -> 0] 0:0 
[2 -> 1] 0:0 
[2 -> 2] 0:0 
[2 -> 3] 0:168 
[2 -> 4] 0:0 
[3 -> 0] 0:0 
[3 -> 1] 0:0 
[3 -> 2] 0:123 
[3 -> 3] 0:0 
[3 -> 4] 0:63 
[4 -> 0] 0:64 
[4 -> 1] 0:0 
[4 -> 2] 0:0 
[4 -> 3] 0:0 
[4 -> 4] 0:0 

router_4_4.bufferMonitor:
[ 0 ] Type=0:(R#197,W#197) 
[ 1 ] Type=0:(R#179,W#179) 
[ 2 ] Type=0:(R#166,W#166) 
[ 3 ] Type=0:(R#181,W#181) 
[ 4 ] Type=0:(R#73,W#73) 

router_4_4.switchMonitor:
Inputs=5Outputs=5[0 -> 0] 0:0 
[0 -> 1] 0:197 
[0 -> 2] 0:0 
[0 -> 3] 0:0 
[0 -> 4] 0:0 
[1 -> 0] 0:121 
[1 -> 1] 0:0 
[1 -> 2] 0:58 
[1 -> 3] 0:0 
[1 -> 4] 0:0 
[2 -> 0] 0:0 
[2 -> 1] 0:0 
[2 -> 2] 0:0 
[2 -> 3] 0:166 
[2 -> 4] 0:0 
[3 -> 0] 0:0 
[3 -> 1] 0:0 
[3 -> 2] 0:122 
[3 -> 3] 0:0 
[3 -> 4] 0:59 
[4 -> 0] 0:73 
[4 -> 1] 0:0 
[4 -> 2] 0:0 
[4 -> 3] 0:0 
[4 -> 4] 0:0 

router_4_5.bufferMonitor:
[ 0 ] Type=0:(R#118,W#118) 
[ 1 ] Type=0:(R#194,W#194) 
[ 2 ] Type=0:(R#173,W#173) 
[ 3 ] Type=0:(R#168,W#168) 
[ 4 ] Type=0:(R#79,W#79) 

router_4_5.switchMonitor:
Inputs=5Outputs=5[0 -> 0] 0:0 
[0 -> 1] 0:118 
[0 -> 2] 0:0 
[0 -> 3] 0:0 
[0 -> 4] 0:0 
[1 -> 0] 0:137 
[1 -> 1] 0:0 
[1 -> 2] 0:57 
[1 -> 3] 0:0 
[1 -> 4] 0:0 
[2 -> 0] 0:0 
[2 -> 1] 0:0 
[2 -> 2] 0:0 
[2 -> 3] 0:173 
[2 -> 4] 0:0 
[3 -> 0] 0:0 
[3 -> 1] 0:0 
[3 -> 2] 0:104 
[3 -> 3] 0:0 
[3 -> 4] 0:64 
[4 -> 0] 0:0 
[4 -> 1] 0:79 
[4 -> 2] 0:0 
[4 -> 3] 0:0 
[4 -> 4] 0:0 

router_4_6.bufferMonitor:
[ 0 ] Type=0:(R#57,W#57) 
[ 1 ] Type=0:(R#137,W#137) 
[ 2 ] Type=0:(R#219,W#219) 
[ 3 ] Type=0:(R#164,W#164) 
[ 4 ] Type=0:(R#61,W#61) 

router_4_6.switchMonitor:
Inputs=5Outputs=5[0 -> 0] 0:0 
[0 -> 1] 0:57 
[0 -> 2] 0:0 
[0 -> 3] 0:0 
[0 -> 4] 0:0 
[1 -> 0] 0:73 
[1 -> 1] 0:0 
[1 -> 2] 0:64 
[1 -> 3] 0:0 
[1 -> 4] 0:0 
[2 -> 0] 0:0 
[2 -> 1] 0:0 
[2 -> 2] 0:0 
[2 -> 3] 0:219 
[2 -> 4] 0:0 
[3 -> 0] 0:0 
[3 -> 1] 0:0 
[3 -> 2] 0:99 
[3 -> 3] 0:0 
[3 -> 4] 0:65 
[4 -> 0] 0:0 
[4 -> 1] 0:61 
[4 -> 2] 0:0 
[4 -> 3] 0:0 
[4 -> 4] 0:0 

router_4_7.bufferMonitor:
[ 0 ] Type=0:(R#0,W#0) 
[ 1 ] Type=0:(R#73,W#73) 
[ 2 ] Type=0:(R#194,W#194) 
[ 3 ] Type=0:(R#172,W#172) 
[ 4 ] Type=0:(R#57,W#57) 

router_4_7.switchMonitor:
Inputs=5Outputs=5[0 -> 0] 0:0 
[0 -> 1] 0:0 
[0 -> 2] 0:0 
[0 -> 3] 0:0 
[0 -> 4] 0:0 
[1 -> 0] 0:0 
[1 -> 1] 0:0 
[1 -> 2] 0:73 
[1 -> 3] 0:0 
[1 -> 4] 0:0 
[2 -> 0] 0:0 
[2 -> 1] 0:0 
[2 -> 2] 0:0 
[2 -> 3] 0:194 
[2 -> 4] 0:0 
[3 -> 0] 0:0 
[3 -> 1] 0:0 
[3 -> 2] 0:112 
[3 -> 3] 0:0 
[3 -> 4] 0:60 
[4 -> 0] 0:0 
[4 -> 1] 0:57 
[4 -> 2] 0:0 
[4 -> 3] 0:0 
[4 -> 4] 0:0 

router_5_0.bufferMonitor:
[ 0 ] Type=0:(R#84,W#84) 
[ 1 ] Type=0:(R#0,W#0) 
[ 2 ] Type=0:(R#103,W#103) 
[ 3 ] Type=0:(R#196,W#196) 
[ 4 ] Type=0:(R#55,W#55) 

router_5_0.switchMonitor:
Inputs=5Outputs=5[0 -> 0] 0:0 
[0 -> 1] 0:0 
[0 -> 2] 0:0 
[0 -> 3] 0:84 
[0 -> 4] 0:0 
[1 -> 0] 0:0 
[1 -> 1] 0:0 
[1 -> 2] 0:0 
[1 -> 3] 0:0 
[1 -> 4] 0:0 
[2 -> 0] 0:0 
[2 -> 1] 0:0 
[2 -> 2] 0:0 
[2 -> 3] 0:103 
[2 -> 4] 0:0 
[3 -> 0] 0:0 
[3 -> 1] 0:0 
[3 -> 2] 0:143 
[3 -> 3] 0:0 
[3 -> 4] 0:53 
[4 -> 0] 0:55 
[4 -> 1] 0:0 
[4 -> 2] 0:0 
[4 -> 3] 0:0 
[4 -> 4] 0:0 

router_5_1.bufferMonitor:
[ 0 ] Type=0:(R#141,W#141) 
[ 1 ] Type=0:(R#55,W#55) 
[ 2 ] Type=0:(R#119,W#119) 
[ 3 ] Type=0:(R#156,W#156) 
[ 4 ] Type=0:(R#52,W#52) 

router_5_1.switchMonitor:
Inputs=5Outputs=5[0 -> 0] 0:0 
[0 -> 1] 0:84 
[0 -> 2] 0:0 
[0 -> 3] 0:57 
[0 -> 4] 0:0 
[1 -> 0] 0:55 
[1 -> 1] 0:0 
[1 -> 2] 0:0 
[1 -> 3] 0:0 
[1 -> 4] 0:0 
[2 -> 0] 0:0 
[2 -> 1] 0:0 
[2 -> 2] 0:0 
[2 -> 3] 0:119 
[2 -> 4] 0:0 
[3 -> 0] 0:0 
[3 -> 1] 0:0 
[3 -> 2] 0:100 
[3 -> 3] 0:0 
[3 -> 4] 0:56 
[4 -> 0] 0:52 
[4 -> 1] 0:0 
[4 -> 2] 0:0 
[4 -> 3] 0:0 
[4 -> 4] 0:0 

router_5_2.bufferMonitor:
[ 0 ] Type=0:(R#192,W#192) 
[ 1 ] Type=0:(R#107,W#107) 
[ 2 ] Type=0:(R#109,W#109) 
[ 3 ] Type=0:(R#186,W#186) 
[ 4 ] Type=0:(R#72,W#72) 

router_5_2.switchMonitor:
Inputs=5Outputs=5[0 -> 0] 0:0 
[0 -> 1] 0:141 
[0 -> 2] 0:0 
[0 -> 3] 0:51 
[0 -> 4] 0:0 
[1 -> 0] 0:107 
[1 -> 1] 0:0 
[1 -> 2] 0:0 
[1 -> 3] 0:0 
[1 -> 4] 0:0 
[2 -> 0] 0:0 
[2 -> 1] 0:0 
[2 -> 2] 0:0 
[2 -> 3] 0:109 
[2 -> 4] 0:0 
[3 -> 0] 0:0 
[3 -> 1] 0:0 
[3 -> 2] 0:118 
[3 -> 3] 0:0 
[3 -> 4] 0:68 
[4 -> 0] 0:72 
[4 -> 1] 0:0 
[4 -> 2] 0:0 
[4 -> 3] 0:0 
[4 -> 4] 0:0 

router_5_3.bufferMonitor:
[ 0 ] Type=0:(R#192,W#192) 
[ 1 ] Type=0:(R#179,W#179) 
[ 2 ] Type=0:(R#113,W#113) 
[ 3 ] Type=0:(R#176,W#176) 
[ 4 ] Type=0:(R#78,W#78) 

router_5_3.switchMonitor:
Inputs=5Outputs=5[0 -> 0] 0:0 
[0 -> 1] 0:192 
[0 -> 2] 0:0 
[0 -> 3] 0:0 
[0 -> 4] 0:0 
[1 -> 0] 0:124 
[1 -> 1] 0:0 
[1 -> 2] 0:0 
[1 -> 3] 0:55 
[1 -> 4] 0:0 
[2 -> 0] 0:0 
[2 -> 1] 0:0 
[2 -> 2] 0:0 
[2 -> 3] 0:113 
[2 -> 4] 0:0 
[3 -> 0] 0:0 
[3 -> 1] 0:0 
[3 -> 2] 0:102 
[3 -> 3] 0:0 
[3 -> 4] 0:74 
[4 -> 0] 0:78 
[4 -> 1] 0:0 
[4 -> 2] 0:0 
[4 -> 3] 0:0 
[4 -> 4] 0:0 

router_5_4.bufferMonitor:
[ 0 ] Type=0:(R#192,W#192) 
[ 1 ] Type=0:(R#202,W#202) 
[ 2 ] Type=0:(R#114,W#114) 
[ 3 ] Type=0:(R#180,W#180) 
[ 4 ] Type=0:(R#65,W#65) 

router_5_4.switchMonitor:
Inputs=5Outputs=5[0 -> 0] 0:0 
[0 -> 1] 0:192 
[0 -> 2] 0:0 
[0 -> 3] 0:0 
[0 -> 4] 0:0 
[1 -> 0] 0:150 
[1 -> 1] 0:0 
[1 -> 2] 0:0 
[1 -> 3] 0:52 
[1 -> 4] 0:0 
[2 -> 0] 0:0 
[2 -> 1] 0:0 
[2 -> 2] 0:0 
[2 -> 3] 0:114 
[2 -> 4] 0:0 
[3 -> 0] 0:0 
[3 -> 1] 0:0 
[3 -> 2] 0:124 
[3 -> 3] 0:0 
[3 -> 4] 0:56 
[4 -> 0] 0:65 
[4 -> 1] 0:0 
[4 -> 2] 0:0 
[4 -> 3] 0:0 
[4 -> 4] 0:0 

router_5_5.bufferMonitor:
[ 0 ] Type=0:(R#108,W#108) 
[ 1 ] Type=0:(R#215,W#215) 
[ 2 ] Type=0:(R#101,W#101) 
[ 3 ] Type=0:(R#161,W#161) 
[ 4 ] Type=0:(R#84,W#84) 

router_5_5.switchMonitor:
Inputs=5Outputs=5[0 -> 0] 0:0 
[0 -> 1] 0:108 
[0 -> 2] 0:0 
[0 -> 3] 0:0 
[0 -> 4] 0:0 
[1 -> 0] 0:143 
[1 -> 1] 0:0 
[1 -> 2] 0:0 
[1 -> 3] 0:72 
[1 -> 4] 0:0 
[2 -> 0] 0:0 
[2 -> 1] 0:0 
[2 -> 2] 0:0 
[2 -> 3] 0:101 
[2 -> 4] 0:0 
[3 -> 0] 0:0 
[3 -> 1] 0:0 
[3 -> 2] 0:108 
[3 -> 3] 0:0 
[3 -> 4] 0:53 
[4 -> 0] 0:0 
[4 -> 1] 0:84 
[4 -> 2] 0:0 
[4 -> 3] 0:0 
[4 -> 4] 0:0 

router_5_6.bufferMonitor:
[ 0 ] Type=0:(R#51,W#51) 
[ 1 ] Type=0:(R#143,W#143) 
[ 2 ] Type=0:(R#141,W#141) 
[ 3 ] Type=0:(R#163,W#163) 
[ 4 ] Type=0:(R#57,W#57) 

router_5_6.switchMonitor:
Inputs=5Outputs=5[0 -> 0] 0:0 
[0 -> 1] 0:51 
[0 -> 2] 0:0 
[0 -> 3] 0:0 
[0 -> 4] 0:0 
[1 -> 0] 0:65 
[1 -> 1] 0:0 
[1 -> 2] 0:0 
[1 -> 3] 0:78 
[1 -> 4] 0:0 
[2 -> 0] 0:0 
[2 -> 1] 0:0 
[2 -> 2] 0:0 
[2 -> 3] 0:141 
[2 -> 4] 0:0 
[3 -> 0] 0:0 
[3 -> 1] 0:0 
[3 -> 2] 0:107 
[3 -> 3] 0:0 
[3 -> 4] 0:56 
[4 -> 0] 0:0 
[4 -> 1] 0:57 
[4 -> 2] 0:0 
[4 -> 3] 0:0 
[4 -> 4] 0:0 

router_5_7.bufferMonitor:
[ 0 ] Type=0:(R#0,W#0) 
[ 1 ] Type=0:(R#65,W#65) 
[ 2 ] Type=0:(R#129,W#129) 
[ 3 ] Type=0:(R#185,W#185) 
[ 4 ] Type=0:(R#51,W#51) 

router_5_7.switchMonitor:
Inputs=5Outputs=5[0 -> 0] 0:0 
[0 -> 1] 0:0 
[0 -> 2] 0:0 
[0 -> 3] 0:0 
[0 -> 4] 0:0 
[1 -> 0] 0:0 
[1 -> 1] 0:0 
[1 -> 2] 0:0 
[1 -> 3] 0:65 
[1 -> 4] 0:0 
[2 -> 0] 0:0 
[2 -> 1] 0:0 
[2 -> 2] 0:0 
[2 -> 3] 0:129 
[2 -> 4] 0:0 
[3 -> 0] 0:0 
[3 -> 1] 0:0 
[3 -> 2] 0:127 
[3 -> 3] 0:0 
[3 -> 4] 0:58 
[4 -> 0] 0:0 
[4 -> 1] 0:51 
[4 -> 2] 0:0 
[4 -> 3] 0:0 
[4 -> 4] 0:0 

router_6_0.bufferMonitor:
[ 0 ] Type=0:(R#45,W#45) 
[ 1 ] Type=0:(R#0,W#0) 
[ 2 ] Type=0:(R#58,W#58) 
[ 3 ] Type=0:(R#143,W#143) 
[ 4 ] Type=0:(R#48,W#48) 

router_6_0.switchMonitor:
Inputs=5Outputs=5[0 -> 0] 0:0 
[0 -> 1] 0:0 
[0 -> 2] 0:0 
[0 -> 3] 0:45 
[0 -> 4] 0:0 
[1 -> 0] 0:0 
[1 -> 1] 0:0 
[1 -> 2] 0:0 
[1 -> 3] 0:0 
[1 -> 4] 0:0 
[2 -> 0] 0:0 
[2 -> 1] 0:0 
[2 -> 2] 0:0 
[2 -> 3] 0:58 
[2 -> 4] 0:0 
[3 -> 0] 0:0 
[3 -> 1] 0:0 
[3 -> 2] 0:79 
[3 -> 3] 0:0 
[3 -> 4] 0:64 
[4 -> 0] 0:48 
[4 -> 1] 0:0 
[4 -> 2] 0:0 
[4 -> 3] 0:0 
[4 -> 4] 0:0 

router_6_1.bufferMonitor:
[ 0 ] Type=0:(R#102,W#102) 
[ 1 ] Type=0:(R#48,W#48) 
[ 2 ] Type=0:(R#62,W#62) 
[ 3 ] Type=0:(R#100,W#100) 
[ 4 ] Type=0:(R#56,W#56) 

router_6_1.switchMonitor:
Inputs=5Outputs=5[0 -> 0] 0:0 
[0 -> 1] 0:45 
[0 -> 2] 0:0 
[0 -> 3] 0:57 
[0 -> 4] 0:0 
[1 -> 0] 0:48 
[1 -> 1] 0:0 
[1 -> 2] 0:0 
[1 -> 3] 0:0 
[1 -> 4] 0:0 
[2 -> 0] 0:0 
[2 -> 1] 0:0 
[2 -> 2] 0:0 
[2 -> 3] 0:62 
[2 -> 4] 0:0 
[3 -> 0] 0:0 
[3 -> 1] 0:0 
[3 -> 2] 0:61 
[3 -> 3] 0:0 
[3 -> 4] 0:39 
[4 -> 0] 0:56 
[4 -> 1] 0:0 
[4 -> 2] 0:0 
[4 -> 3] 0:0 
[4 -> 4] 0:0 

router_6_2.bufferMonitor:
[ 0 ] Type=0:(R#154,W#154) 
[ 1 ] Type=0:(R#104,W#104) 
[ 2 ] Type=0:(R#57,W#57) 
[ 3 ] Type=0:(R#118,W#118) 
[ 4 ] Type=0:(R#39,W#39) 

router_6_2.switchMonitor:
Inputs=5Outputs=5[0 -> 0] 0:0 
[0 -> 1] 0:102 
[0 -> 2] 0:0 
[0 -> 3] 0:52 
[0 -> 4] 0:0 
[1 -> 0] 0:104 
[1 -> 1] 0:0 
[1 -> 2] 0:0 
[1 -> 3] 0:0 
[1 -> 4] 0:0 
[2 -> 0] 0:0 
[2 -> 1] 0:0 
[2 -> 2] 0:0 
[2 -> 3] 0:57 
[2 -> 4] 0:0 
[3 -> 0] 0:0 
[3 -> 1] 0:0 
[3 -> 2] 0:57 
[3 -> 3] 0:0 
[3 -> 4] 0:61 
[4 -> 0] 0:39 
[4 -> 1] 0:0 
[4 -> 2] 0:0 
[4 -> 3] 0:0 
[4 -> 4] 0:0 

router_6_3.bufferMonitor:
[ 0 ] Type=0:(R#154,W#154) 
[ 1 ] Type=0:(R#143,W#143) 
[ 2 ] Type=0:(R#65,W#65) 
[ 3 ] Type=0:(R#102,W#102) 
[ 4 ] Type=0:(R#67,W#67) 

router_6_3.switchMonitor:
Inputs=5Outputs=5[0 -> 0] 0:0 
[0 -> 1] 0:154 
[0 -> 2] 0:0 
[0 -> 3] 0:0 
[0 -> 4] 0:0 
[1 -> 0] 0:95 
[1 -> 1] 0:0 
[1 -> 2] 0:0 
[1 -> 3] 0:48 
[1 -> 4] 0:0 
[2 -> 0] 0:0 
[2 -> 1] 0:0 
[2 -> 2] 0:0 
[2 -> 3] 0:65 
[2 -> 4] 0:0 
[3 -> 0] 0:0 
[3 -> 1] 0:0 
[3 -> 2] 0:53 
[3 -> 3] 0:0 
[3 -> 4] 0:49 
[4 -> 0] 0:67 
[4 -> 1] 0:0 
[4 -> 2] 0:0 
[4 -> 3] 0:0 
[4 -> 4] 0:0 

router_6_4.bufferMonitor:
[ 0 ] Type=0:(R#154,W#154) 
[ 1 ] Type=0:(R#162,W#162) 
[ 2 ] Type=0:(R#58,W#58) 
[ 3 ] Type=0:(R#124,W#124) 
[ 4 ] Type=0:(R#58,W#58) 

router_6_4.switchMonitor:
Inputs=5Outputs=5[0 -> 0] 0:0 
[0 -> 1] 0:154 
[0 -> 2] 0:0 
[0 -> 3] 0:0 
[0 -> 4] 0:0 
[1 -> 0] 0:106 
[1 -> 1] 0:0 
[1 -> 2] 0:0 
[1 -> 3] 0:56 
[1 -> 4] 0:0 
[2 -> 0] 0:0 
[2 -> 1] 0:0 
[2 -> 2] 0:0 
[2 -> 3] 0:58 
[2 -> 4] 0:0 
[3 -> 0] 0:0 
[3 -> 1] 0:0 
[3 -> 2] 0:58 
[3 -> 3] 0:0 
[3 -> 4] 0:66 
[4 -> 0] 0:58 
[4 -> 1] 0:0 
[4 -> 2] 0:0 
[4 -> 3] 0:0 
[4 -> 4] 0:0 

router_6_5.bufferMonitor:
[ 0 ] Type=0:(R#109,W#109) 
[ 1 ] Type=0:(R#164,W#164) 
[ 2 ] Type=0:(R#62,W#62) 
[ 3 ] Type=0:(R#108,W#108) 
[ 4 ] Type=0:(R#45,W#45) 

router_6_5.switchMonitor:
Inputs=5Outputs=5[0 -> 0] 0:0 
[0 -> 1] 0:109 
[0 -> 2] 0:0 
[0 -> 3] 0:0 
[0 -> 4] 0:0 
[1 -> 0] 0:125 
[1 -> 1] 0:0 
[1 -> 2] 0:0 
[1 -> 3] 0:39 
[1 -> 4] 0:0 
[2 -> 0] 0:0 
[2 -> 1] 0:0 
[2 -> 2] 0:0 
[2 -> 3] 0:62 
[2 -> 4] 0:0 
[3 -> 0] 0:0 
[3 -> 1] 0:0 
[3 -> 2] 0:57 
[3 -> 3] 0:0 
[3 -> 4] 0:51 
[4 -> 0] 0:0 
[4 -> 1] 0:45 
[4 -> 2] 0:0 
[4 -> 3] 0:0 
[4 -> 4] 0:0 

router_6_6.bufferMonitor:
[ 0 ] Type=0:(R#52,W#52) 
[ 1 ] Type=0:(R#125,W#125) 
[ 2 ] Type=0:(R#74,W#74) 
[ 3 ] Type=0:(R#107,W#107) 
[ 4 ] Type=0:(R#57,W#57) 

router_6_6.switchMonitor:
Inputs=5Outputs=5[0 -> 0] 0:0 
[0 -> 1] 0:52 
[0 -> 2] 0:0 
[0 -> 3] 0:0 
[0 -> 4] 0:0 
[1 -> 0] 0:58 
[1 -> 1] 0:0 
[1 -> 2] 0:0 
[1 -> 3] 0:67 
[1 -> 4] 0:0 
[2 -> 0] 0:0 
[2 -> 1] 0:0 
[2 -> 2] 0:0 
[2 -> 3] 0:74 
[2 -> 4] 0:0 
[3 -> 0] 0:0 
[3 -> 1] 0:0 
[3 -> 2] 0:64 
[3 -> 3] 0:0 
[3 -> 4] 0:43 
[4 -> 0] 0:0 
[4 -> 1] 0:57 
[4 -> 2] 0:0 
[4 -> 3] 0:0 
[4 -> 4] 0:0 

router_6_7.bufferMonitor:
[ 0 ] Type=0:(R#0,W#0) 
[ 1 ] Type=0:(R#58,W#58) 
[ 2 ] Type=0:(R#71,W#71) 
[ 3 ] Type=0:(R#127,W#127) 
[ 4 ] Type=0:(R#52,W#52) 

router_6_7.switchMonitor:
Inputs=5Outputs=5[0 -> 0] 0:0 
[0 -> 1] 0:0 
[0 -> 2] 0:0 
[0 -> 3] 0:0 
[0 -> 4] 0:0 
[1 -> 0] 0:0 
[1 -> 1] 0:0 
[1 -> 2] 0:0 
[1 -> 3] 0:58 
[1 -> 4] 0:0 
[2 -> 0] 0:0 
[2 -> 1] 0:0 
[2 -> 2] 0:0 
[2 -> 3] 0:71 
[2 -> 4] 0:0 
[3 -> 0] 0:0 
[3 -> 1] 0:0 
[3 -> 2] 0:73 
[3 -> 3] 0:0 
[3 -> 4] 0:54 
[4 -> 0] 0:0 
[4 -> 1] 0:52 
[4 -> 2] 0:0 
[4 -> 3] 0:0 
[4 -> 4] 0:0 

router_7_0.bufferMonitor:
[ 0 ] Type=0:(R#58,W#58) 
[ 1 ] Type=0:(R#0,W#0) 
[ 2 ] Type=0:(R#0,W#0) 
[ 3 ] Type=0:(R#79,W#79) 
[ 4 ] Type=0:(R#65,W#65) 

router_7_0.switchMonitor:
Inputs=5Outputs=5[0 -> 0] 0:0 
[0 -> 1] 0:0 
[0 -> 2] 0:0 
[0 -> 3] 0:58 
[0 -> 4] 0:0 
[1 -> 0] 0:0 
[1 -> 1] 0:0 
[1 -> 2] 0:0 
[1 -> 3] 0:0 
[1 -> 4] 0:0 
[2 -> 0] 0:0 
[2 -> 1] 0:0 
[2 -> 2] 0:0 
[2 -> 3] 0:0 
[2 -> 4] 0:0 
[3 -> 0] 0:0 
[3 -> 1] 0:0 
[3 -> 2] 0:0 
[3 -> 3] 0:0 
[3 -> 4] 0:79 
[4 -> 0] 0:65 
[4 -> 1] 0:0 
[4 -> 2] 0:0 
[4 -> 3] 0:0 
[4 -> 4] 0:0 

router_7_1.bufferMonitor:
[ 0 ] Type=0:(R#120,W#120) 
[ 1 ] Type=0:(R#65,W#65) 
[ 2 ] Type=0:(R#0,W#0) 
[ 3 ] Type=0:(R#61,W#61) 
[ 4 ] Type=0:(R#58,W#58) 

router_7_1.switchMonitor:
Inputs=5Outputs=5[0 -> 0] 0:0 
[0 -> 1] 0:58 
[0 -> 2] 0:0 
[0 -> 3] 0:62 
[0 -> 4] 0:0 
[1 -> 0] 0:65 
[1 -> 1] 0:0 
[1 -> 2] 0:0 
[1 -> 3] 0:0 
[1 -> 4] 0:0 
[2 -> 0] 0:0 
[2 -> 1] 0:0 
[2 -> 2] 0:0 
[2 -> 3] 0:0 
[2 -> 4] 0:0 
[3 -> 0] 0:0 
[3 -> 1] 0:0 
[3 -> 2] 0:0 
[3 -> 3] 0:0 
[3 -> 4] 0:61 
[4 -> 0] 0:58 
[4 -> 1] 0:0 
[4 -> 2] 0:0 
[4 -> 3] 0:0 
[4 -> 4] 0:0 

router_7_2.bufferMonitor:
[ 0 ] Type=0:(R#177,W#177) 
[ 1 ] Type=0:(R#123,W#123) 
[ 2 ] Type=0:(R#0,W#0) 
[ 3 ] Type=0:(R#57,W#57) 
[ 4 ] Type=0:(R#62,W#62) 

router_7_2.switchMonitor:
Inputs=5Outputs=5[0 -> 0] 0:0 
[0 -> 1] 0:120 
[0 -> 2] 0:0 
[0 -> 3] 0:57 
[0 -> 4] 0:0 
[1 -> 0] 0:123 
[1 -> 1] 0:0 
[1 -> 2] 0:0 
[1 -> 3] 0:0 
[1 -> 4] 0:0 
[2 -> 0] 0:0 
[2 -> 1] 0:0 
[2 -> 2] 0:0 
[2 -> 3] 0:0 
[2 -> 4] 0:0 
[3 -> 0] 0:0 
[3 -> 1] 0:0 
[3 -> 2] 0:0 
[3 -> 3] 0:0 
[3 -> 4] 0:57 
[4 -> 0] 0:62 
[4 -> 1] 0:0 
[4 -> 2] 0:0 
[4 -> 3] 0:0 
[4 -> 4] 0:0 

router_7_3.bufferMonitor:
[ 0 ] Type=0:(R#177,W#177) 
[ 1 ] Type=0:(R#185,W#185) 
[ 2 ] Type=0:(R#0,W#0) 
[ 3 ] Type=0:(R#53,W#53) 
[ 4 ] Type=0:(R#74,W#74) 

router_7_3.switchMonitor:
Inputs=5Outputs=5[0 -> 0] 0:0 
[0 -> 1] 0:177 
[0 -> 2] 0:0 
[0 -> 3] 0:0 
[0 -> 4] 0:0 
[1 -> 0] 0:120 
[1 -> 1] 0:0 
[1 -> 2] 0:0 
[1 -> 3] 0:65 
[1 -> 4] 0:0 
[2 -> 0] 0:0 
[2 -> 1] 0:0 
[2 -> 2] 0:0 
[2 -> 3] 0:0 
[2 -> 4] 0:0 
[3 -> 0] 0:0 
[3 -> 1] 0:0 
[3 -> 2] 0:0 
[3 -> 3] 0:0 
[3 -> 4] 0:53 
[4 -> 0] 0:74 
[4 -> 1] 0:0 
[4 -> 2] 0:0 
[4 -> 3] 0:0 
[4 -> 4] 0:0 

router_7_4.bufferMonitor:
[ 0 ] Type=0:(R#177,W#177) 
[ 1 ] Type=0:(R#194,W#194) 
[ 2 ] Type=0:(R#0,W#0) 
[ 3 ] Type=0:(R#58,W#58) 
[ 4 ] Type=0:(R#71,W#71) 

router_7_4.switchMonitor:
Inputs=5Outputs=5[0 -> 0] 0:0 
[0 -> 1] 0:177 
[0 -> 2] 0:0 
[0 -> 3] 0:0 
[0 -> 4] 0:0 
[1 -> 0] 0:136 
[1 -> 1] 0:0 
[1 -> 2] 0:0 
[1 -> 3] 0:58 
[1 -> 4] 0:0 
[2 -> 0] 0:0 
[2 -> 1] 0:0 
[2 -> 2] 0:0 
[2 -> 3] 0:0 
[2 -> 4] 0:0 
[3 -> 0] 0:0 
[3 -> 1] 0:0 
[3 -> 2] 0:0 
[3 -> 3] 0:0 
[3 -> 4] 0:58 
[4 -> 0] 0:71 
[4 -> 1] 0:0 
[4 -> 2] 0:0 
[4 -> 3] 0:0 
[4 -> 4] 0:0 

router_7_5.bufferMonitor:
[ 0 ] Type=0:(R#119,W#119) 
[ 1 ] Type=0:(R#207,W#207) 
[ 2 ] Type=0:(R#0,W#0) 
[ 3 ] Type=0:(R#57,W#57) 
[ 4 ] Type=0:(R#58,W#58) 

router_7_5.switchMonitor:
Inputs=5Outputs=5[0 -> 0] 0:0 
[0 -> 1] 0:119 
[0 -> 2] 0:0 
[0 -> 3] 0:0 
[0 -> 4] 0:0 
[1 -> 0] 0:145 
[1 -> 1] 0:0 
[1 -> 2] 0:0 
[1 -> 3] 0:62 
[1 -> 4] 0:0 
[2 -> 0] 0:0 
[2 -> 1] 0:0 
[2 -> 2] 0:0 
[2 -> 3] 0:0 
[2 -> 4] 0:0 
[3 -> 0] 0:0 
[3 -> 1] 0:0 
[3 -> 2] 0:0 
[3 -> 3] 0:0 
[3 -> 4] 0:57 
[4 -> 0] 0:0 
[4 -> 1] 0:58 
[4 -> 2] 0:0 
[4 -> 3] 0:0 
[4 -> 4] 0:0 

router_7_6.bufferMonitor:
[ 0 ] Type=0:(R#57,W#57) 
[ 1 ] Type=0:(R#145,W#145) 
[ 2 ] Type=0:(R#0,W#0) 
[ 3 ] Type=0:(R#64,W#64) 
[ 4 ] Type=0:(R#62,W#62) 

router_7_6.switchMonitor:
Inputs=5Outputs=5[0 -> 0] 0:0 
[0 -> 1] 0:57 
[0 -> 2] 0:0 
[0 -> 3] 0:0 
[0 -> 4] 0:0 
[1 -> 0] 0:71 
[1 -> 1] 0:0 
[1 -> 2] 0:0 
[1 -> 3] 0:74 
[1 -> 4] 0:0 
[2 -> 0] 0:0 
[2 -> 1] 0:0 
[2 -> 2] 0:0 
[2 -> 3] 0:0 
[2 -> 4] 0:0 
[3 -> 0] 0:0 
[3 -> 1] 0:0 
[3 -> 2] 0:0 
[3 -> 3] 0:0 
[3 -> 4] 0:64 
[4 -> 0] 0:0 
[4 -> 1] 0:62 
[4 -> 2] 0:0 
[4 -> 3] 0:0 
[4 -> 4] 0:0 

router_7_7.bufferMonitor:
[ 0 ] Type=0:(R#0,W#0) 
[ 1 ] Type=0:(R#71,W#71) 
[ 2 ] Type=0:(R#0,W#0) 
[ 3 ] Type=0:(R#73,W#73) 
[ 4 ] Type=0:(R#57,W#57) 

router_7_7.switchMonitor:
Inputs=5Outputs=5[0 -> 0] 0:0 
[0 -> 1] 0:0 
[0 -> 2] 0:0 
[0 -> 3] 0:0 
[0 -> 4] 0:0 
[1 -> 0] 0:0 
[1 -> 1] 0:0 
[1 -> 2] 0:0 
[1 -> 3] 0:71 
[1 -> 4] 0:0 
[2 -> 0] 0:0 
[2 -> 1] 0:0 
[2 -> 2] 0:0 
[2 -> 3] 0:0 
[2 -> 4] 0:0 
[3 -> 0] 0:0 
[3 -> 1] 0:0 
[3 -> 2] 0:0 
[3 -> 3] 0:0 
[3 -> 4] 0:73 
[4 -> 0] 0:0 
[4 -> 1] 0:57 
[4 -> 2] 0:0 
[4 -> 3] 0:0 
[4 -> 4] 0:0 

